data_3a765c2f-5a3d-4006-8dbc-18df31259c7d
_audit_creation_method         'generated by data2config v5.5c'

_cell_length_a                   5.43070
_cell_length_b                   5.43070
_cell_length_c                   5.43070
_cell_angle_alpha               90.00000
_cell_angle_beta                90.00000
_cell_angle_gamma               90.00000

loop_
_symmetry_equiv_pos_as_xyz
'+x,+y,+z'

loop_
_atom_site_type_symbol
_atom_site_label
_atom_site_fract_x
_atom_site_fract_y
_atom_site_fract_z
_atom_site_occupancy
Si    Si1        0.0000    0.0000    0.0000  1.0
Cl    Si2        0.0000    0.5000    0.5000  0.5
Ge    Si2        0.0000    0.5000    0.5000  0.4
Si    Si3        0.5000    0.5000    0.0000  1.0
Fe    Si5        0.7500    0.2500    0.7500  0.5
Na    Si5        0.7500    0.2500    0.7500  0.5
