data_max_cluster
_audit_creation_method         'generated by data2config v5.5c'
 
_cell_length_a                  84.92680
_cell_length_b                  87.57400
_cell_length_c                  75.14280
_cell_angle_alpha               90.00000
_cell_angle_beta                96.73700
_cell_angle_gamma               90.00000
 
loop_
_symmetry_equiv_pos_as_xyz
'+x,+y,+z'
 
loop_
_atom_site_type_symbol
_atom_site_label
_atom_site_fract_x
_atom_site_fract_y
_atom_site_fract_z
Li    Li1        0.1980    0.0108    0.1597
Li    Li2        0.2047    0.0387    0.2764
Li    Li3        0.0366    0.0682    0.4784
Li    Li4        0.0232    0.0824    0.3418
Li    Li5        0.0930    0.0909    0.9147
Li    Li6        0.1692    0.1350    0.2083
Li    Li7        0.0921    0.1639    0.0428
Li    Li8        0.2217    0.1419    0.2839
Li    Li9        0.2170    0.1068    0.4171
Li    Li10        0.1728    0.1440    0.7018
Li    Li11        0.0840    0.1613    0.5414
Li    Li12        0.0873    0.1758    0.6437
Li    Li13        0.2205    0.1362    0.7835
Li    Li14        0.0392    0.2885    0.0807
Li    Li15        0.0782    0.2934    0.4191
Li    Li16        0.0383    0.2565    0.7070
Li    Li17        0.1686    0.2407    0.7112
Li    Li18        0.0942    0.2505    0.5414
Li    Li19        0.1617    0.2150    0.5935
Li    Li20        0.0324    0.2801    0.5883
Li    Li21        0.2115    0.2200    0.6494
Li    Li22        0.2043    0.2342    0.7653
Li    Li23        0.0383    0.3890    0.0825
Li    Li24        0.2124    0.3387    0.2968
Li    Li25        0.0326    0.3637    0.4701
Li    Li26        0.1628    0.3474    0.4606
Li    Li27        0.0845    0.3560    0.3008
Li    Li28        0.1635    0.3231    0.3622
Li    Li29        0.0390    0.3876    0.3421
Li    Li30        0.0865    0.3870    0.6588
Li    Li31        0.0966    0.4857    0.1597
Li    Li32        0.2075    0.4141    0.1733
Li    Li33        0.0392    0.4673    0.4785
Li    Li34        0.0290    0.4911    0.3273
Li    Li35        0.2200    0.4120    0.4096
Li    Li36        0.1653    0.4371    0.7095
Li    Li37        0.0946    0.4717    0.5295
Li    Li38        0.2228    0.4466    0.7856
Li    Li39        0.1661    0.4361    0.9535
Li    Li40        0.0788    0.4526    0.7893
Li    Li41        0.0820    0.4835    0.8938
Li    Li42        0.2164    0.4128    0.9103
Li    Li43        0.2140    0.5099    0.1649
Li    Li44        0.1652    0.5355    0.7106
Li    Li45        0.0963    0.5797    0.6453
Li    Li46        0.1727    0.5191    0.5940
Li    Li47        0.0300    0.5667    0.6097
Li    Li48        0.1555    0.5054    0.8437
Li    Li49        0.1523    0.6336    0.2112
Li    Li50        0.2105    0.6347    0.2882
Li    Li51        0.1002    0.6616    0.2905
Li    Li52        0.0951    0.6755    0.4014
Li    Li53        0.0339    0.6899    0.3453
Li    Li54        0.1606    0.6114    0.5791
Li    Li55        0.1551    0.6118    0.8297
Li    Li56        0.1710    0.7408    0.4843
Li    Li57        0.2152    0.7101    0.4082
Li    Li58        0.2143    0.7388    0.5476
Li    Li59        0.0342    0.7548    0.7072
Li    Li60        0.1613    0.7147    0.6002
Li    Li61        0.2111    0.7131    0.6657
Li    Li62        0.1638    0.8295    0.4670
Li    Li63        0.0815    0.8642    0.2889
Li    Li64        0.0350    0.8978    0.3267
Li    Li65        0.2119    0.8396    0.5506
Li    Li66        0.0928    0.8675    0.5405
Li    Li67        0.0283    0.8835    0.5913
Li    Li68        0.1621    0.9123    0.3375
Li    Li69        0.0411    0.9739    0.3533
Li    Li70        0.2131    0.9136    0.6682
Li    Li71        0.4688    0.0343    0.0299
Li    Li72        0.4612    0.0384    0.2785
Li    Li73        0.2831    0.0627    0.4618
Li    Li74        0.4102    0.0074    0.3326
Li    Li75        0.3375    0.0636    0.7883
Li    Li76        0.2791    0.0846    0.8430
Li    Li77        0.2782    0.1675    0.2102
Li    Li78        0.4152    0.1341    0.2130
Li    Li79        0.4690    0.1099    0.1662
Li    Li80        0.2910    0.1888    0.3363
Li    Li81        0.2753    0.1626    0.7164
Li    Li82        0.3371    0.1882    0.6647
Li    Li83        0.2840    0.1543    0.9602
Li    Li84        0.3323    0.1613    0.7779
Li    Li85        0.4232    0.1155    0.8395
Li    Li86        0.2870    0.1826    0.8340
Li    Li87        0.3017    0.2690    0.2190
Li    Li88        0.2859    0.2817    0.0894
Li    Li89        0.4614    0.2200    0.1436
Li    Li90        0.4095    0.2231    0.3432
Li    Li91        0.4587    0.2335    0.7855
Li    Li92        0.4065    0.2364    0.9656
Li    Li93        0.2850    0.2855    0.8411
Li    Li94        0.4605    0.2186    0.9125
Li    Li95        0.4490    0.3410    0.0435
Li    Li96        0.2915    0.3615    0.2043
Li    Li97        0.4091    0.3417    0.2176
Li    Li98        0.3353    0.3883    0.1713
Li    Li99        0.4112    0.3131    0.0824
Li    Li100        0.2899    0.3894    0.0810
Li    Li101        0.4684    0.3210    0.1579
Li    Li102        0.2779    0.3589    0.4602
Li    Li103        0.3340    0.3922    0.4203
Li    Li104        0.2838    0.3667    0.7114
Li    Li105        0.3408    0.3663    0.5240
Li    Li106        0.3308    0.3930    0.6733
Li    Li107        0.4172    0.3086    0.5761
Li    Li108        0.4140    0.3365    0.9609
Li    Li109        0.2992    0.3926    0.8495
Li    Li110        0.4014    0.4411    0.2114
Li    Li111        0.3340    0.4844    0.1813
Li    Li112        0.3406    0.4697    0.2710
Li    Li113        0.4165    0.4162    0.3356
Li    Li114        0.3491    0.4681    0.7771
Li    Li115        0.3341    0.4883    0.9236
Li    Li116        0.4685    0.5409    0.0328
Li    Li117        0.3413    0.5628    0.0250
Li    Li118        0.4096    0.5117    0.3320
Li    Li119        0.4586    0.5356    0.7867
Li    Li120        0.2870    0.5708    0.9835
Li    Li121        0.4136    0.5445    0.9562
Li    Li122        0.4122    0.5102    0.8201
Li    Li123        0.4573    0.6219    0.0196
Li    Li124        0.3367    0.6603    0.0378
Li    Li125        0.3374    0.6929    0.1717
Li    Li126        0.4126    0.6091    0.0723
Li    Li127        0.4634    0.6196    0.1610
Li    Li128        0.3401    0.6677    0.2896
Li    Li129        0.4153    0.6120    0.3283
Li    Li130        0.4833    0.6377    0.5411
Li    Li131        0.4122    0.6383    0.7203
Li    Li132        0.3295    0.6701    0.6438
Li    Li133        0.4192    0.6309    0.9726
Li    Li134        0.3413    0.6681    0.7897
Li    Li135        0.4587    0.6129    0.9129
Li    Li136        0.2875    0.7647    0.4560
Li    Li137        0.4253    0.7001    0.3257
Li    Li138        0.4067    0.7382    0.7090
Li    Li139        0.3362    0.7642    0.5379
Li    Li140        0.2779    0.7831    0.5876
Li    Li141        0.4630    0.7070    0.6661
Li    Li142        0.4080    0.8397    0.2053
Li    Li143        0.3354    0.8804    0.4163
Li    Li144        0.2790    0.8560    0.7127
Li    Li145        0.4131    0.8314    0.9610
Li    Li146        0.2919    0.9637    0.2002
Li    Li147        0.3548    0.9925    0.1669
Li    Li148        0.3018    0.9752    0.4736
Li    Li149        0.3373    0.9895    0.4080
Li    Li150        0.4073    0.9150    0.3391
Li    Li151        0.4653    0.9167    0.4157
Li    Li152        0.4723    0.9308    0.5321
Li    Li153        0.3916    0.9167    0.5974
Li    Li154        0.4169    0.9207    0.8560
Li    Li155        0.6664    0.0104    0.3315
Li    Li156        0.6671    0.0513    0.7052
Li    Li157        0.5897    0.0644    0.5436
Li    Li158        0.6611    0.0159    0.5843
Li    Li159        0.7150    0.0364    0.7809
Li    Li160        0.7070    0.1377    0.0466
Li    Li161        0.5775    0.1805    0.1488
Li    Li162        0.5429    0.1878    0.0971
Li    Li163        0.7154    0.1142    0.4010
Li    Li164        0.5972    0.1683    0.7899
Li    Li165        0.7110    0.1100    0.9179
Li    Li166        0.5907    0.2624    0.0533
Li    Li167        0.5381    0.2862    0.0852
Li    Li168        0.5830    0.2576    0.3004
Li    Li169        0.5338    0.2666    0.7124
Li    Li170        0.5981    0.2929    0.6576
Li    Li171        0.7211    0.2312    0.6441
Li    Li172        0.5932    0.2642    0.7944
Li    Li173        0.5834    0.2875    0.9171
Li    Li174        0.6504    0.2206    0.8497
Li    Li175        0.6475    0.3375    0.2169
Li    Li176        0.6684    0.3080    0.0748
Li    Li177        0.7126    0.3176    0.1582
Li    Li178        0.6635    0.3023    0.5906
Li    Li179        0.5346    0.3631    0.9583
Li    Li180        0.5395    0.4860    0.0747
Li    Li181        0.7321    0.4185    0.3946
Li    Li182        0.5410    0.5861    0.0773
Li    Li183        0.5898    0.5665    0.2722
Li    Li184        0.5365    0.5885    0.3335
Li    Li185        0.5340    0.5573    0.9578
Li    Li186        0.5877    0.5898    0.9138
Li    Li187        0.6437    0.6364    0.2208
Li    Li188        0.6575    0.6450    0.4679
Li    Li189        0.5793    0.6593    0.2732
Li    Li190        0.7157    0.6394    0.5371
Li    Li191        0.7040    0.6127    0.6601
Li    Li192        0.7107    0.6452    0.7929
Li    Li193        0.5386    0.7596    0.4521
Li    Li194        0.5864    0.7974    0.4141
Li    Li195        0.6601    0.7436    0.7101
Li    Li196        0.5925    0.8640    0.0252
Li    Li197        0.5868    0.8859    0.1756
Li    Li198        0.5415    0.8886    0.1015
Li    Li199        0.7061    0.8418    0.2964
Li    Li200        0.5409    0.8852    0.3272
Li    Li201        0.7079    0.8383    0.5451
Li    Li202        0.5902    0.8647    0.5418
Li    Li203        0.6635    0.8141    0.5958
Li    Li204        0.7152    0.8319    0.7844
Li    Li205        0.5858    0.8830    0.8972
Li    Li206        0.6601    0.8228    0.8420
Li    Li207        0.5272    0.9923    0.3452
Li    Li208        0.5363    0.9653    0.7199
Li    Li209        0.6711    0.9260    0.7330
Li    Li210        0.5816    0.9965    0.6649
Li    Li211        0.6609    0.9142    0.5891
Li    Li212        0.6610    0.9153    0.8313
Li    Li213        0.5433    0.9872    0.8251
Li    Li214        0.7989    0.0612    0.4700
Li    Li215        0.8400    0.0848    0.6577
Li    Li216        0.7909    0.0892    0.5780
Li    Li217        0.9650    0.0375    0.7804
Li    Li218        0.7889    0.0861    0.8360
Li    Li219        0.8342    0.1650    0.0273
Li    Li220        0.9186    0.1100    0.0817
Li    Li221        0.9613    0.1380    0.2933
Li    Li222        0.9058    0.1130    0.3416
Li    Li223        0.9113    0.1382    0.7083
Li    Li224        0.8402    0.1939    0.9207
Li    Li225        0.7879    0.1991    0.8355
Li    Li226        0.8378    0.2696    0.0395
Li    Li227        0.9104    0.2131    0.0769
Li    Li228        0.7858    0.2824    0.0812
Li    Li229        0.9640    0.2407    0.5432
Li    Li230        0.9143    0.2395    0.7202
Li    Li231        0.9676    0.2321    0.7860
Li    Li232        0.7903    0.2864    0.8375
Li    Li233        0.7739    0.3611    0.2275
Li    Li234        0.9091    0.3104    0.0859
Li    Li235        0.9642    0.3421    0.2938
Li    Li236        0.9197    0.3325    0.4592
Li    Li237        0.9120    0.3123    0.3348
Li    Li238        0.9113    0.3329    0.7105
Li    Li239        0.8378    0.3828    0.6670
Li    Li240        0.7908    0.3871    0.5794
Li    Li241        0.8402    0.3547    0.7920
Li    Li242        0.8321    0.4613    0.0352
Li    Li243        0.7942    0.4899    0.0884
Li    Li244        0.9158    0.4402    0.4664
Li    Li245        0.9065    0.4131    0.5784
Li    Li246        0.9636    0.4407    0.7915
Li    Li247        0.9084    0.4330    0.9663
Li    Li248        0.9650    0.4188    0.9103
Li    Li249        0.8356    0.5895    0.4088
Li    Li250        0.9617    0.5187    0.4085
Li    Li251        0.9589    0.5407    0.5397
Li    Li252        0.8501    0.5890    0.6622
Li    Li253        0.9675    0.5084    0.6634
Li    Li254        0.7841    0.5581    0.9609
Li    Li255        0.9273    0.5196    0.8394
Li    Li256        0.9125    0.6102    0.3345
Li    Li257        0.9662    0.6110    0.4091
Li    Li258        0.8389    0.6670    0.7828
Li    Li259        0.7858    0.6916    0.8385
Li    Li260        0.9634    0.7543    0.5240
Li    Li261        0.7930    0.7590    0.9554
Li    Li262        0.9113    0.7318    0.9647
Li    Li263        0.8398    0.7671    0.7833
Li    Li264        0.8423    0.7816    0.9093
Li    Li265        0.7867    0.8606    0.2060
Li    Li266        0.8435    0.8784    0.6599
Li    Li267        0.9524    0.9326    0.5312
Li    Li268        0.9030    0.9302    0.7144
Li    Li269        0.7907    0.9869    0.8306
Li    Li270        0.0446    0.0866    0.1975
Li    Li271        0.1760    0.0154    0.1848
Li    Li272        0.1685    0.0350    0.3198
Li    Li273        0.0740    0.0653    0.4276
Li    Li274        0.2151    0.0397    0.4277
Li    Li275        0.0467    0.0679    0.3206
Li    Li276        0.2102    0.0107    0.3050
Li    Li277        0.0818    0.0894    0.2986
Li    Li278        0.1760    0.0185    0.4420
Li    Li279        0.0753    0.0892    0.5545
Li    Li280        0.0838    0.0632    0.9256
Li    Li281        0.0445    0.0650    0.8264
Li    Li282        0.0500    0.0882    0.9493
Li    Li283        0.0766    0.0910    0.8101
Li    Li284        0.2026    0.1435    0.1950
Li    Li285        0.0428    0.1592    0.0757
Li    Li286        0.0658    0.1946    0.0606
Li    Li287        0.1662    0.1019    0.1923
Li    Li288        0.2039    0.1388    0.4291
Li    Li289        0.1749    0.1123    0.4482
Li    Li290        0.1724    0.1362    0.5745
Li    Li291        0.2046    0.1431    0.6845
Li    Li292        0.0471    0.1613    0.5684
Li    Li293        0.0432    0.1832    0.7018
Li    Li294        0.0815    0.1935    0.5588
Li    Li295        0.1667    0.1196    0.6988
Li    Li296        0.1800    0.1306    0.8176
Li    Li297        0.0796    0.1643    0.9377
Li    Li298        0.0543    0.1590    0.8190
Li    Li299        0.0528    0.1869    0.9428
Li    Li300        0.2018    0.2167    0.0492
Li    Li301        0.0839    0.2612    0.4338
Li    Li302        0.0485    0.2828    0.4449
Li    Li303        0.0798    0.2985    0.3104
Li    Li304        0.1571    0.2420    0.5683
Li    Li305        0.0844    0.2653    0.6835
Li    Li306        0.0415    0.2528    0.5701
Li    Li307        0.0431    0.2850    0.6987
Li    Li308        0.1995    0.2155    0.5555
Li    Li309        0.0348    0.2865    0.9419
Li    Li310        0.1647    0.3353    0.0674
Li    Li311        0.0829    0.3616    0.1773
Li    Li312        0.2017    0.3425    0.1699
Li    Li313        0.0490    0.3601    0.0683
Li    Li314        0.2045    0.3141    0.0522
Li    Li315        0.0789    0.3846    0.0747
Li    Li316        0.1702    0.3289    0.1987
Li    Li317        0.1628    0.3392    0.3168
Li    Li318        0.0807    0.3616    0.4261
Li    Li319        0.2030    0.3338    0.4250
Li    Li320        0.0454    0.3605    0.3194
Li    Li321        0.2045    0.3166    0.3076
Li    Li322        0.0772    0.3840    0.3105
Li    Li323        0.1686    0.3120    0.4449
Li    Li324        0.0740    0.3654    0.6722
Li    Li325        0.2028    0.3187    0.5318
Li    Li326        0.0749    0.3862    0.5588
Li    Li327        0.0803    0.3658    0.9259
Li    Li328        0.2042    0.3382    0.9217
Li    Li329        0.0518    0.3710    0.8268
Li    Li330        0.0505    0.3926    0.9445
Li    Li331        0.1761    0.3055    0.9479
Li    Li332        0.1581    0.4386    0.0684
Li    Li333        0.0830    0.4568    0.1827
Li    Li334        0.0401    0.4946    0.1877
Li    Li335        0.2088    0.4072    0.0703
Li    Li336        0.1680    0.4069    0.1907
Li    Li337        0.0426    0.4543    0.3193
Li    Li338        0.0453    0.4886    0.4299
Li    Li339        0.2008    0.4136    0.3032
Li    Li340        0.0777    0.4893    0.3113
Li    Li341        0.1701    0.4039    0.4317
Li    Li342        0.1702    0.4354    0.5707
Li    Li343        0.2121    0.4445    0.6788
Li    Li344        0.0413    0.4598    0.5767
Li    Li345        0.2182    0.4029    0.5658
Li    Li346        0.1687    0.4109    0.6887
Li    Li347        0.1737    0.4348    0.8276
Li    Li348        0.0708    0.4609    0.9282
Li    Li349        0.2036    0.4281    0.9310
Li    Li350        0.0410    0.4619    0.8196
Li    Li351        0.1736    0.4085    0.9363
Li    Li352        0.2117    0.5367    0.1897
Li    Li353        0.1746    0.5095    0.1930
Li    Li354        0.1747    0.5199    0.3169
Li    Li355        0.1602    0.5462    0.5600
Li    Li356        0.2114    0.5397    0.6793
Li    Li357        0.2088    0.5197    0.5541
Li    Li358        0.1685    0.5409    0.8228
Li    Li359        0.2008    0.5372    0.9244
Li    Li360        0.0441    0.5853    0.9557
Li    Li361        0.2059    0.5154    0.8014
Li    Li362        0.2093    0.6113    0.0529
Li    Li363        0.0768    0.6609    0.4276
Li    Li364        0.2129    0.6355    0.4320
Li    Li365        0.0429    0.6590    0.3249
Li    Li366        0.0427    0.6931    0.4405
Li    Li367        0.0815    0.6853    0.2983
Li    Li368        0.1726    0.6172    0.4511
Li    Li369        0.1630    0.6393    0.5663
Li    Li370        0.1677    0.5976    0.6715
Li    Li371        0.1727    0.6338    0.8403
Li    Li372        0.0433    0.6658    0.8171
Li    Li373        0.2048    0.6105    0.8119
Li    Li374        0.0955    0.6687    0.8211
Li    Li375        0.1713    0.6147    0.9418
Li    Li376        0.1681    0.7416    0.3292
Li    Li377        0.2113    0.7372    0.4270
Li    Li378        0.2038    0.7144    0.3026
Li    Li379        0.1644    0.7074    0.4480
Li    Li380        0.1711    0.7393    0.5649
Li    Li381        0.0784    0.7602    0.6768
Li    Li382        0.0463    0.7835    0.6978
Li    Li383        0.2014    0.7212    0.5642
Li    Li384        0.0778    0.7840    0.5426
Li    Li385        0.1720    0.7103    0.7019
Li    Li386        0.0793    0.8662    0.4301
Li    Li387        0.2172    0.8354    0.4306
Li    Li388        0.0420    0.8614    0.3223
Li    Li389        0.0771    0.8894    0.2971
Li    Li390        0.1747    0.8329    0.5708
Li    Li391        0.0460    0.8588    0.5682
Li    Li392        0.0819    0.8888    0.5556
Li    Li393        0.2080    0.8107    0.8031
Li    Li394        0.0776    0.9595    0.1783
Li    Li395        0.0432    0.9880    0.1932
Li    Li396        0.1703    0.9329    0.3245
Li    Li397        0.0785    0.9618    0.4244
Li    Li398        0.0449    0.9790    0.3265
Li    Li399        0.0427    0.9922    0.4443
Li    Li400        0.2044    0.9110    0.3064
Li    Li401        0.0713    0.9866    0.3124
Li    Li402        0.1674    0.9128    0.4458
Li    Li403        0.2036    0.9437    0.6807
Li    Li404        0.0465    0.9572    0.5747
Li    Li405        0.4222    0.0377    0.0722
Li    Li406        0.4576    0.0165    0.0482
Li    Li407        0.4171    0.0133    0.3040
Li    Li408        0.3383    0.0845    0.4148
Li    Li409        0.2910    0.0695    0.3231
Li    Li410        0.4506    0.0138    0.2989
Li    Li411        0.4739    0.0345    0.6887
Li    Li412        0.4500    0.0180    0.5573
Li    Li413        0.2890    0.0700    0.7975
Li    Li414        0.3346    0.0866    0.8103
Li    Li415        0.3263    0.1619    0.1769
Li    Li416        0.4541    0.1362    0.1719
Li    Li417        0.2974    0.1640    0.0714
Li    Li418        0.2934    0.1950    0.1919
Li    Li419        0.4567    0.1192    0.0541
Li    Li420        0.4267    0.1149    0.1889
Li    Li421        0.3008    0.1605    0.3225
Li    Li422        0.3240    0.2008    0.3091
Li    Li423        0.3316    0.1627    0.6729
Li    Li424        0.4204    0.1388    0.8257
Li    Li425        0.3365    0.1579    0.9387
Li    Li426        0.4624    0.1359    0.9310
Li    Li427        0.2957    0.1623    0.8237
Li    Li428        0.2895    0.1910    0.9523
Li    Li429        0.3237    0.1854    0.7963
Li    Li430        0.4241    0.1057    0.9393
Li    Li431        0.3211    0.2608    0.1747
Li    Li432        0.4562    0.2316    0.1786
Li    Li433        0.2884    0.2583    0.0702
Li    Li434        0.2949    0.2849    0.1975
Li    Li435        0.4501    0.2112    0.0520
Li    Li436        0.3252    0.2827    0.0532
Li    Li437        0.4091    0.2102    0.1951
Li    Li438        0.4094    0.2424    0.3236
Li    Li439        0.4539    0.2151    0.3030
Li    Li440        0.4528    0.2377    0.6825
Li    Li441        0.4141    0.2093    0.7042
Li    Li442        0.4167    0.2337    0.8280
Li    Li443        0.3263    0.2691    0.9182
Li    Li444        0.4491    0.2366    0.9290
Li    Li445        0.3028    0.2598    0.8204
Li    Li446        0.4461    0.2140    0.8019
Li    Li447        0.3262    0.2888    0.8095
Li    Li448        0.4219    0.2078    0.9439
Li    Li449        0.4155    0.3397    0.0660
Li    Li450        0.4486    0.3354    0.1798
Li    Li451        0.2981    0.3582    0.0667
Li    Li452        0.3069    0.3985    0.1954
Li    Li453        0.4531    0.3136    0.0440
Li    Li454        0.3242    0.3969    0.0541
Li    Li455        0.4099    0.3056    0.1990
Li    Li456        0.3284    0.3587    0.4313
Li    Li457        0.2984    0.3848    0.4479
Li    Li458        0.4194    0.3369    0.5700
Li    Li459        0.3210    0.3725    0.6827
Li    Li460        0.4606    0.3379    0.6781
Li    Li461        0.2858    0.3880    0.6930
Li    Li462        0.4539    0.3175    0.5623
Li    Li463        0.4160    0.3036    0.6762
Li    Li464        0.4141    0.3316    0.8499
Li    Li465        0.4541    0.3290    0.9271
Li    Li466        0.2972    0.3628    0.8239
Li    Li467        0.3275    0.3856    0.7990
Li    Li468        0.4219    0.3136    0.9429
Li    Li469        0.4130    0.4442    0.0708
Li    Li470        0.4623    0.4378    0.1788
Li    Li471        0.4510    0.4146    0.0534
Li    Li472        0.4230    0.4064    0.2045
Li    Li473        0.3002    0.4647    0.3180
Li    Li474        0.4590    0.4170    0.3033
Li    Li475        0.3393    0.4897    0.3042
Li    Li476        0.3177    0.4549    0.6869
Li    Li477        0.2978    0.4859    0.7038
Li    Li478        0.4216    0.4099    0.7006
Li    Li479        0.2942    0.4593    0.8246
Li    Li480        0.2972    0.4909    0.9497
Li    Li481        0.4123    0.5418    0.0737
Li    Li482        0.4504    0.5360    0.1868
Li    Li483        0.2931    0.5701    0.1981
Li    Li484        0.4610    0.5101    0.0534
Li    Li485        0.3404    0.5906    0.0568
Li    Li486        0.4186    0.5067    0.2062
Li    Li487        0.4544    0.5101    0.3087
Li    Li488        0.4278    0.5165    0.4475
Li    Li489        0.4141    0.5405    0.5652
Li    Li490        0.4405    0.5431    0.6846
Li    Li491        0.2925    0.5634    0.5721
Li    Li492        0.2977    0.5795    0.6969
Li    Li493        0.3259    0.5878    0.5496
Li    Li494        0.4257    0.5235    0.6971
Li    Li495        0.4165    0.5354    0.8187
Li    Li496        0.3210    0.5637    0.9228
Li    Li497        0.4578    0.5340    0.9281
Li    Li498        0.3029    0.5661    0.8209
Li    Li499        0.2920    0.5873    0.9400
Li    Li500        0.4565    0.5107    0.8024
Li    Li501        0.4208    0.5119    0.9445
Li    Li502        0.4220    0.6338    0.0738
Li    Li503        0.3296    0.6658    0.1701
Li    Li504        0.2911    0.6600    0.0673
Li    Li505        0.2927    0.6852    0.1953
Li    Li506        0.4570    0.6090    0.0550
Li    Li507        0.4304    0.6163    0.1963
Li    Li508        0.4174    0.6488    0.3037
Li    Li509        0.3247    0.6635    0.4279
Li    Li510        0.2911    0.6786    0.3224
Li    Li511        0.2990    0.6920    0.4409
Li    Li512        0.4491    0.6181    0.2982
Li    Li513        0.4177    0.6359    0.5790
Li    Li514        0.3311    0.6644    0.6766
Li    Li515        0.2959    0.6874    0.6926
Li    Li516        0.4483    0.6098    0.5585
Li    Li517        0.3333    0.6842    0.5512
Li    Li518        0.4229    0.6376    0.8227
Li    Li519        0.3318    0.6624    0.9317
Li    Li520        0.4488    0.6332    0.9279
Li    Li521        0.2955    0.6842    0.9456
Li    Li522        0.4535    0.6155    0.8024
Li    Li523        0.4232    0.6124    0.9483
Li    Li524        0.4205    0.7348    0.0788
Li    Li525        0.4499    0.7086    0.0518
Li    Li526        0.4139    0.7055    0.1766
Li    Li527        0.4228    0.7360    0.3265
Li    Li528        0.4518    0.7087    0.2921
Li    Li529        0.4222    0.7355    0.5703
Li    Li530        0.4652    0.7347    0.6860
Li    Li531        0.2920    0.7658    0.5664
Li    Li532        0.4463    0.7092    0.5622
Li    Li533        0.3199    0.7871    0.5568
Li    Li534        0.4274    0.7090    0.7025
Li    Li535        0.4195    0.8348    0.0725
Li    Li536        0.4540    0.8367    0.1716
Li    Li537        0.4602    0.8223    0.0575
Li    Li538        0.3275    0.8603    0.4334
Li    Li539        0.4529    0.8324    0.4282
Li    Li540        0.2935    0.8953    0.4459
Li    Li541        0.4146    0.8111    0.4519
Li    Li542        0.3287    0.8628    0.6931
Li    Li543        0.4560    0.8436    0.6783
Li    Li544        0.2910    0.8901    0.6975
Li    Li545        0.4505    0.8134    0.5477
Li    Li546        0.3320    0.8835    0.5495
Li    Li547        0.4526    0.8341    0.9255
Li    Li548        0.3368    0.9691    0.1837
Li    Li549        0.3002    0.9850    0.1953
Li    Li550        0.4032    0.9006    0.1916
Li    Li551        0.4198    0.9430    0.3157
Li    Li552        0.3252    0.9659    0.4203
Li    Li553        0.2967    0.9603    0.3238
Li    Li554        0.3336    0.9938    0.2969
Li    Li555        0.4214    0.9071    0.4510
Li    Li556        0.4198    0.9390    0.5752
Li    Li557        0.4422    0.9333    0.6719
Li    Li558        0.4550    0.9124    0.5568
Li    Li559        0.4275    0.9195    0.6957
Li    Li560        0.4170    0.9375    0.8223
Li    Li561        0.4598    0.9149    0.8045
Li    Li562        0.6804    0.0261    0.3197
Li    Li563        0.5464    0.0882    0.4435
Li    Li564        0.7027    0.0137    0.3034
Li    Li565        0.6651    0.0444    0.5649
Li    Li566        0.7059    0.0155    0.5620
Li    Li567        0.6702    0.0246    0.6896
Li    Li568        0.6669    0.0374    0.8212
Li    Li569        0.6728    0.1348    0.0725
Li    Li570        0.5749    0.1660    0.1734
Li    Li571        0.5466    0.1583    0.0778
Li    Li572        0.5473    0.1881    0.2039
Li    Li573        0.5787    0.1841    0.0630
Li    Li574        0.7100    0.1380    0.4262
Li    Li575        0.6740    0.1150    0.4525
Li    Li576        0.7017    0.1429    0.9269
Li    Li577        0.5466    0.1704    0.8157
Li    Li578        0.6702    0.1122    0.9493
Li    Li579        0.6808    0.2286    0.0722
Li    Li580        0.5849    0.2654    0.1808
Li    Li581        0.7053    0.2391    0.1712
Li    Li582        0.5443    0.2625    0.0720
Li    Li583        0.5467    0.2903    0.1998
Li    Li584        0.5435    0.2656    0.3226
Li    Li585        0.6704    0.2401    0.5767
Li    Li586        0.5773    0.2612    0.6736
Li    Li587        0.7064    0.2407    0.6772
Li    Li588        0.5446    0.2600    0.5761
Li    Li589        0.5470    0.2877    0.6855
Li    Li590        0.5818    0.2882    0.5551
Li    Li591        0.6680    0.2171    0.7000
Li    Li592        0.6733    0.2385    0.8275
Li    Li593        0.5841    0.2582    0.9350
Li    Li594        0.5533    0.2698    0.8228
Li    Li595        0.5487    0.2902    0.9267
Li    Li596        0.7010    0.2118    0.8036
Li    Li597        0.6630    0.3366    0.0671
Li    Li598        0.5830    0.3661    0.1791
Li    Li599        0.7094    0.3343    0.1845
Li    Li600        0.5411    0.3622    0.0723
Li    Li601        0.5508    0.3878    0.1864
Li    Li602        0.7168    0.2961    0.0654
Li    Li603        0.6670    0.3059    0.1898
Li    Li604        0.5327    0.3608    0.3193
Li    Li605        0.5778    0.3892    0.3059
Li    Li606        0.7142    0.3418    0.6766
Li    Li607        0.7053    0.3106    0.5589
Li    Li608        0.5869    0.4623    0.1853
Li    Li609        0.5578    0.4661    0.0684
Li    Li610        0.5526    0.4890    0.1966
Li    Li611        0.5745    0.4908    0.0590
Li    Li612        0.7087    0.4342    0.4329
Li    Li613        0.6705    0.4168    0.4300
Li    Li614        0.5774    0.4598    0.9361
Li    Li615        0.6968    0.4315    0.9247
Li    Li616        0.5837    0.5625    0.1781
Li    Li617        0.5454    0.5641    0.0691
Li    Li618        0.5519    0.5859    0.1963
Li    Li619        0.5807    0.5883    0.0521
Li    Li620        0.5774    0.5617    0.4225
Li    Li621        0.5460    0.5623    0.3140
Li    Li622        0.5407    0.5852    0.4443
Li    Li623        0.5915    0.5944    0.3026
Li    Li624        0.5722    0.5815    0.5504
Li    Li625        0.5857    0.5574    0.9252
Li    Li626        0.5463    0.5604    0.8261
Li    Li627        0.5408    0.5898    0.9493
Li    Li628        0.5470    0.6685    0.2076
Li    Li629        0.6607    0.6078    0.1942
Li    Li630        0.6538    0.6455    0.3158
Li    Li631        0.5841    0.6605    0.4268
Li    Li632        0.5348    0.6569    0.3150
Li    Li633        0.5462    0.6859    0.4427
Li    Li634        0.7172    0.6452    0.6765
Li    Li635        0.5415    0.6586    0.5745
Li    Li636        0.5744    0.6927    0.5519
Li    Li637        0.6684    0.6081    0.6956
Li    Li638        0.6682    0.6375    0.8174
Li    Li639        0.7068    0.6127    0.8035
Li    Li640        0.5856    0.7653    0.4346
Li    Li641        0.7071    0.7347    0.4263
Li    Li642        0.5428    0.7666    0.3169
Li    Li643        0.5416    0.7871    0.4511
Li    Li644        0.5849    0.7908    0.3019
Li    Li645        0.6699    0.7029    0.4360
Li    Li646        0.7038    0.7468    0.6754
Li    Li647        0.5420    0.7608    0.5655
Li    Li648        0.6688    0.7127    0.7016
Li    Li649        0.5762    0.7624    0.9253
Li    Li650        0.5334    0.7600    0.8224
Li    Li651        0.5460    0.7827    0.9511
Li    Li652        0.5773    0.7873    0.8105
Li    Li653        0.5752    0.8637    0.1808
Li    Li654        0.5311    0.8650    0.0741
Li    Li655        0.5819    0.8898    0.0582
Li    Li656        0.6688    0.8356    0.3112
Li    Li657        0.5479    0.8801    0.4534
Li    Li658        0.5772    0.8875    0.3007
Li    Li659        0.6719    0.8118    0.4440
Li    Li660        0.6619    0.8475    0.5874
Li    Li661        0.5819    0.8606    0.6808
Li    Li662        0.5448    0.8573    0.5776
Li    Li663        0.7074    0.8140    0.5522
Li    Li664        0.6727    0.8132    0.6962
Li    Li665        0.6607    0.8436    0.8101
Li    Li666        0.5762    0.8684    0.9421
Li    Li667        0.5432    0.8606    0.8187
Li    Li668        0.5464    0.8883    0.9509
Li    Li669        0.7047    0.8064    0.8070
Li    Li670        0.5793    0.8877    0.8115
Li    Li671        0.5470    0.9623    0.3233
Li    Li672        0.5750    0.9912    0.3056
Li    Li673        0.6657    0.9406    0.5656
Li    Li674        0.5823    0.9598    0.6858
Li    Li675        0.5477    0.9959    0.6937
Li    Li676        0.6978    0.9196    0.5561
Li    Li677        0.5818    0.9901    0.5560
Li    Li678        0.7035    0.9210    0.7973
Li    Li679        0.5755    0.9760    0.8002
Li    Li680        0.9418    0.0257    0.1788
Li    Li681        0.9297    0.0331    0.3194
Li    Li682        0.8348    0.0688    0.4407
Li    Li683        0.9597    0.0329    0.4294
Li    Li684        0.7978    0.0595    0.3261
Li    Li685        0.7843    0.0883    0.4293
Li    Li686        0.9528    0.0119    0.3048
Li    Li687        0.8250    0.0801    0.3025
Li    Li688        0.7877    0.0465    0.5561
Li    Li689        0.8290    0.0868    0.5647
Li    Li690        0.9183    0.0102    0.6938
Li    Li691        0.9164    0.0437    0.8204
Li    Li692        0.8316    0.0621    0.9271
Li    Li693        0.9539    0.0212    0.9363
Li    Li694        0.8022    0.0607    0.8087
Li    Li695        0.8002    0.0846    0.9494
Li    Li696        0.9622    0.0092    0.8039
Li    Li697        0.8295    0.0803    0.7995
Li    Li698        0.9197    0.0108    0.9498
Li    Li699        0.9229    0.1373    0.0760
Li    Li700        0.9556    0.1361    0.1806
Li    Li701        0.7955    0.1755    0.0701
Li    Li702        0.9568    0.1164    0.0557
Li    Li703        0.8264    0.1901    0.0478
Li    Li704        0.9323    0.1467    0.3161
Li    Li705        0.9506    0.1360    0.4238
Li    Li706        0.9636    0.1180    0.3148
Li    Li707        0.9219    0.1135    0.4445
Li    Li708        0.9184    0.1316    0.5801
Li    Li709        0.9586    0.1376    0.6786
Li    Li710        0.9603    0.1207    0.5574
Li    Li711        0.9154    0.1118    0.6916
Li    Li712        0.8383    0.1581    0.9258
Li    Li713        0.7893    0.1939    0.9447
Li    Li714        0.8326    0.1945    0.8069
Li    Li715        0.9216    0.2383    0.0736
Li    Li716        0.8005    0.2599    0.0758
Li    Li717        0.9549    0.2163    0.0480
Li    Li718        0.8336    0.2870    0.0570
Li    Li719        0.9593    0.2392    0.4315
Li    Li720        0.8349    0.2961    0.3128
Li    Li721        0.8363    0.2624    0.6787
Li    Li722        0.9536    0.2374    0.6821
Li    Li723        0.7923    0.2943    0.6896
Li    Li724        0.9504    0.2141    0.5535
Li    Li725        0.9205    0.2131    0.6957
Li    Li726        0.9134    0.2448    0.8212
Li    Li727        0.8369    0.2589    0.9331
Li    Li728        0.9632    0.2349    0.9344
Li    Li729        0.7993    0.2635    0.8222
Li    Li730        0.9545    0.2144    0.8044
Li    Li731        0.8270    0.2847    0.7942
Li    Li732        0.8286    0.3629    0.1757
Li    Li733        0.7957    0.3891    0.1966
Li    Li734        0.9520    0.3090    0.0589
Li    Li735        0.9218    0.3401    0.3232
Li    Li736        0.8351    0.3628    0.4307
Li    Li737        0.9568    0.3351    0.4342
Li    Li738        0.7983    0.3893    0.4535
Li    Li739        0.9516    0.3154    0.2993
Li    Li740        0.9060    0.3109    0.4430
Li    Li741        0.8236    0.3572    0.6832
Li    Li742        0.9595    0.3408    0.6802
Li    Li743        0.7864    0.3530    0.5691
Li    Li744        0.8285    0.3856    0.5529
Li    Li745        0.9088    0.3432    0.8213
Li    Li746        0.8291    0.3638    0.9299
Li    Li747        0.9548    0.3308    0.9273
Li    Li748        0.7933    0.3630    0.8122
Li    Li749        0.7929    0.3907    0.9519
Li    Li750        0.8272    0.3950    0.8067
Li    Li751        0.9206    0.3122    0.9509
Li    Li752        0.9178    0.4369    0.0641
Li    Li753        0.7991    0.4625    0.0753
Li    Li754        0.8240    0.4864    0.0518
Li    Li755        0.8181    0.4563    0.4374
Li    Li756        0.9438    0.4337    0.4233
Li    Li757        0.9738    0.4055    0.3047
Li    Li758        0.9481    0.4145    0.5503
Li    Li759        0.9157    0.4128    0.6968
Li    Li760        0.9205    0.4382    0.8207
Li    Li761        0.8502    0.4539    0.9433
Li    Li762        0.9585    0.4380    0.9287
Li    Li763        0.9189    0.4113    0.9496
Li    Li764        0.9230    0.5383    0.3243
Li    Li765        0.8274    0.5583    0.4308
Li    Li766        0.7967    0.5566    0.3245
Li    Li767        0.9537    0.5118    0.2983
Li    Li768        0.8347    0.5889    0.3067
Li    Li769        0.9205    0.5130    0.4472
Li    Li770        0.9111    0.5417    0.5729
Li    Li771        0.7941    0.5882    0.6926
Li    Li772        0.9588    0.5118    0.5610
Li    Li773        0.9214    0.5223    0.6909
Li    Li774        0.9562    0.5393    0.9306
Li    Li775        0.7839    0.5934    0.9368
Li    Li776        0.9570    0.5205    0.8024
Li    Li777        0.9284    0.5090    0.9468
Li    Li778        0.9581    0.6425    0.4363
Li    Li779        0.9483    0.6085    0.3024
Li    Li780        0.9173    0.6123    0.4459
Li    Li781        0.9508    0.6409    0.6810
Li    Li782        0.9576    0.6167    0.5653
Li    Li783        0.7953    0.6716    0.8248
Li    Li784        0.8288    0.6891    0.8045
Li    Li785        0.9546    0.7389    0.4309
Li    Li786        0.9184    0.7379    0.5650
Li    Li787        0.8319    0.7618    0.6767
Li    Li788        0.8017    0.7912    0.6948
Li    Li789        0.9544    0.7186    0.5439
Li    Li790        0.9205    0.7349    0.8233
Li    Li791        0.8292    0.7648    0.9245
Li    Li792        0.9609    0.7210    0.9492
Li    Li793        0.8074    0.7706    0.8261
Li    Li794        0.8017    0.7939    0.9402
Li    Li795        0.9583    0.7138    0.8058
Li    Li796        0.7958    0.8586    0.3224
Li    Li797        0.8328    0.8892    0.3032
Li    Li798        0.8253    0.8595    0.6790
Li    Li799        0.7956    0.8647    0.5730
Li    Li800        0.7891    0.8813    0.6962
Li    Li801        0.7998    0.9826    0.4483
Li    Li802        0.9209    0.9173    0.5600
Li    Li803        0.8252    0.9590    0.6914
Li    Li804        0.9599    0.9113    0.5472
Li    Li805        0.8262    0.9854    0.5474
Li    Li806        0.9064    0.8993    0.6658
Li    Li807        0.8306    0.9833    0.7983
Li    Li808        0.0118    0.0913    0.1892
Li    Li809        0.1341    0.0229    0.1910
Li    Li810        0.1154    0.0586    0.4361
Li    Li811        0.1196    0.0825    0.5556
Li    Li812        0.1210    0.0658    0.9185
Li    Li813        0.0063    0.0588    0.9657
Li    Li814        0.1095    0.0744    0.8191
Li    Li815        0.2353    0.1434    0.1796
Li    Li816        0.1325    0.1937    0.0487
Li    Li817        0.2390    0.1327    0.4323
Li    Li818        0.2209    0.1069    0.3082
Li    Li819        0.1336    0.1100    0.4534
Li    Li820        0.2297    0.1492    0.6864
Li    Li821        0.9819    0.1891    0.6812
Li    Li822        0.1323    0.1243    0.8565
Li    Li823        0.0054    0.1692    0.8202
Li    Li824        0.2418    0.1239    0.7855
Li    Li825        0.2486    0.2181    0.0379
Li    Li826        0.1181    0.2926    0.0520
Li    Li827        0.1238    0.2967    0.3009
Li    Li828        0.1158    0.2569    0.6811
Li    Li829        0.2465    0.2369    0.6777
Li    Li830        0.2232    0.2289    0.5770
Li    Li831        0.1318    0.2076    0.6896
Li    Li832        0.0116    0.2829    0.9441
Li    Li833        0.1223    0.3612    0.1913
Li    Li834        0.2321    0.3452    0.1847
Li    Li835        0.0096    0.3545    0.0760
Li    Li836        0.2516    0.3147    0.0624
Li    Li837        0.1074    0.3986    0.0769
Li    Li838        0.1294    0.3131    0.1965
Li    Li839        0.2335    0.3519    0.4308
Li    Li840        0.0066    0.3636    0.3427
Li    Li841        0.2577    0.3000    0.3005
Li    Li842        0.1476    0.3770    0.3146
Li    Li843        0.0286    0.3862    0.6808
Li    Li844        0.1286    0.3552    0.9305
Li    Li845        0.0165    0.3644    0.8200
Li    Li846        0.0093    0.3895    0.9354
Li    Li847        0.2437    0.4378    0.1815
Li    Li848        0.0065    0.4816    0.2136
Li    Li849        0.2462    0.4206    0.0532
Li    Li850        0.9988    0.4603    0.2947
Li    Li851        0.0266    0.4999    0.4403
Li    Li852        0.1250    0.4917    0.3010
Li    Li853        0.1234    0.4406    0.5689
Li    Li854        0.0054    0.4553    0.5737
Li    Li855        0.2664    0.4139    0.5578
Li    Li856        0.1153    0.4835    0.5592
Li    Li857        0.0048    0.4663    0.8138
Li    Li858        0.0099    0.4844    0.9486
Li    Li859        0.2570    0.5431    0.1988
Li    Li860        0.1253    0.5122    0.1904
Li    Li861        0.2346    0.5444    0.6863
Li    Li862        0.2523    0.5128    0.5567
Li    Li863        0.1088    0.5805    0.5361
Li    Li864        0.1429    0.5485    0.8035
Li    Li865        0.0084    0.5788    0.9732
Li    Li866        0.2478    0.5083    0.8030
Li    Li867        0.2382    0.6346    0.1819
Li    Li868        0.1401    0.6396    0.3114
Li    Li869        0.0070    0.6692    0.3171
Li    Li870        0.0027    0.6860    0.4389
Li    Li871        0.2363    0.6056    0.3099
Li    Li872        0.1432    0.6308    0.4319
Li    Li873        0.1355    0.6126    0.6879
Li    Li874        0.0132    0.6749    0.8160
Li    Li875        0.2472    0.6165    0.8014
Li    Li876        0.1485    0.6283    0.9294
Li    Li877        0.2483    0.7304    0.4274
Li    Li878        0.0059    0.7868    0.4474
Li    Li879        0.1373    0.7094    0.4486
Li    Li880        0.1196    0.7715    0.6727
Li    Li881        0.9905    0.7963    0.7000
Li    Li882        0.2452    0.7158    0.5485
Li    Li883        0.1375    0.7191    0.6956
Li    Li884        0.2495    0.8316    0.4208
Li    Li885        0.1369    0.8338    0.5716
Li    Li886        0.0142    0.8649    0.5849
Li    Li887        0.2658    0.8156    0.8050
Li    Li888        0.2332    0.9338    0.1973
Li    Li889        0.0119    0.9955    0.1922
Li    Li890        0.1321    0.9347    0.3171
Li    Li891        0.0106    0.9899    0.4387
Li    Li892        0.1343    0.9152    0.4423
Li    Li893        0.1313    0.9429    0.5662
Li    Li894        0.0115    0.9657    0.5603
Li    Li895        0.1152    0.9875    0.5514
Li    Li896        0.3857    0.0387    0.0637
Li    Li897        0.2452    0.0645    0.3062
Li    Li898        0.4743    0.0049    0.2990
Li    Li899        0.4934    0.0123    0.5515
Li    Li900        0.3774    0.0978    0.8073
Li    Li901        0.3664    0.1568    0.1873
Li    Li902        0.4924    0.1293    0.1685
Li    Li903        0.4945    0.1115    0.0575
Li    Li904        0.2558    0.1620    0.3200
Li    Li905        0.3612    0.1872    0.3087
Li    Li906        0.2570    0.1967    0.6792
Li    Li907        0.3828    0.1326    0.8138
Li    Li908        0.3757    0.1551    0.9327
Li    Li909        0.2600    0.1611    0.8140
Li    Li910        0.3739    0.1063    0.9253
Li    Li911        0.3583    0.2581    0.1873
Li    Li912        0.4913    0.2109    0.0531
Li    Li913        0.3702    0.2841    0.0530
Li    Li914        0.3812    0.2342    0.3112
Li    Li915        0.3837    0.2081    0.6830
Li    Li916        0.3769    0.2337    0.8239
Li    Li917        0.4942    0.2300    0.8992
Li    Li918        0.2589    0.2644    0.8196
Li    Li919        0.2637    0.2878    0.9472
Li    Li920        0.3849    0.3210    0.0806
Li    Li921        0.5073    0.3392    0.1771
Li    Li922        0.2728    0.3576    0.0689
Li    Li923        0.3777    0.3870    0.0704
Li    Li924        0.3629    0.3760    0.4436
Li    Li925        0.2545    0.3930    0.4494
Li    Li926        0.3875    0.3429    0.5535
Li    Li927        0.3537    0.3504    0.6967
Li    Li928        0.4982    0.3306    0.6494
Li    Li929        0.2586    0.3703    0.5780
Li    Li930        0.2560    0.3803    0.7024
Li    Li931        0.4924    0.3078    0.5565
Li    Li932        0.3642    0.3916    0.7932
Li    Li933        0.3847    0.3084    0.9443
Li    Li934        0.2574    0.4845    0.2012
Li    Li935        0.4985    0.4142    0.0519
Li    Li936        0.3842    0.4105    0.1848
Li    Li937        0.2568    0.4656    0.3149
Li    Li938        0.4923    0.4105    0.3108
Li    Li939        0.2607    0.4733    0.6877
Li    Li940        0.3880    0.4292    0.8036
Li    Li941        0.2665    0.4602    0.8340
Li    Li942        0.3754    0.5358    0.0714
Li    Li943        0.4953    0.5427    0.1849
Li    Li944        0.2554    0.5796    0.2032
Li    Li945        0.5126    0.5120    0.0498
Li    Li946        0.3617    0.6028    0.0775
Li    Li947        0.3899    0.5958    0.3104
Li    Li948        0.4015    0.5553    0.5448
Li    Li949        0.2671    0.5555    0.5568
Li    Li950        0.2692    0.5624    0.6793
Li    Li951        0.3682    0.5873    0.5489
Li    Li952        0.3906    0.5479    0.8008
Li    Li953        0.3682    0.5669    0.9387
Li    Li954        0.4893    0.5361    0.9381
Li    Li955        0.3797    0.6416    0.0704
Li    Li956        0.3697    0.6912    0.0715
Li    Li957        0.3874    0.6171    0.2058
Li    Li958        0.3733    0.6463    0.3207
Li    Li959        0.2528    0.6969    0.4271
Li    Li960        0.4931    0.6189    0.2830
Li    Li961        0.3848    0.6427    0.5695
Li    Li962        0.3804    0.6076    0.6983
Li    Li963        0.4741    0.6512    0.9360
Li    Li964        0.3780    0.6122    0.9493
Li    Li965        0.3841    0.7281    0.0670
Li    Li966        0.4953    0.7132    0.0556
Li    Li967        0.3685    0.7678    0.4556
Li    Li968        0.3881    0.7292    0.5612
Li    Li969        0.4852    0.7460    0.6959
Li    Li970        0.2526    0.7664    0.5625
Li    Li971        0.4900    0.7182    0.5621
Li    Li972        0.3823    0.7090    0.6945
Li    Li973        0.5065    0.8375    0.1791
Li    Li974        0.3554    0.8538    0.4395
Li    Li975        0.5111    0.8399    0.4161
Li    Li976        0.3655    0.8704    0.6937
Li    Li977        0.4859    0.8425    0.6817
Li    Li978        0.2692    0.9091    0.6741
Li    Li979        0.5075    0.8505    0.9242
Li    Li980        0.3713    0.9619    0.1753
Li    Li981        0.2450    0.9886    0.1824
Li    Li982        0.3884    0.9363    0.1950
Li    Li983        0.3775    0.9430    0.3092
Li    Li984        0.3669    0.9619    0.4226
Li    Li985        0.2559    0.9845    0.4462
Li    Li986        0.4804    0.9241    0.3024
Li    Li987        0.3760    0.9961    0.3042
Li    Li988        0.3713    0.9163    0.4535
Li    Li989        0.3806    0.9320    0.5660
Li    Li990        0.4972    0.9308    0.6906
Li    Li991        0.4781    0.9049    0.5609
Li    Li992        0.3909    0.9119    0.6998
Li    Li993        0.5067    0.0593    0.0707
Li    Li994        0.5070    0.0602    0.5688
Li    Li995        0.7453    0.0110    0.5680
Li    Li996        0.6077    0.1624    0.1806
Li    Li997        0.5022    0.1604    0.0672
Li    Li998        0.5053    0.1824    0.1821
Li    Li999        0.6354    0.1205    0.4628
Li    Li1000        0.7475    0.1143    0.5580
Li    Li1001        0.7432    0.1334    0.9265
Li    Li1002        0.6254    0.2354    0.0733
Li    Li1003        0.6268    0.2666    0.1874
Li    Li1004        0.7530    0.2393    0.1736
Li    Li1005        0.5013    0.2633    0.0751
Li    Li1006        0.6132    0.2888    0.0546
Li    Li1007        0.7424    0.2374    0.6729
Li    Li1008        0.4956    0.2652    0.5726
Li    Li1009        0.6346    0.2110    0.7033
Li    Li1010        0.5019    0.2645    0.8153
Li    Li1011        0.7377    0.2150    0.8160
Li    Li1012        0.6031    0.3373    0.0575
Li    Li1013        0.7527    0.3106    0.0441
Li    Li1014        0.6317    0.3366    0.5709
Li    Li1015        0.7571    0.3465    0.6657
Li    Li1016        0.7439    0.3393    0.9369
Li    Li1017        0.6161    0.4610    0.1793
Li    Li1018        0.5189    0.4931    0.1876
Li    Li1019        0.6100    0.4963    0.0644
Li    Li1020        0.5158    0.5580    0.0574
Li    Li1021        0.4982    0.5835    0.2098
Li    Li1022        0.6169    0.5859    0.0680
Li    Li1023        0.6273    0.5373    0.5527
Li    Li1024        0.6226    0.5837    0.5509
Li    Li1025        0.6337    0.5084    0.9399
Li    Li1026        0.6264    0.6675    0.4639
Li    Li1027        0.7356    0.6385    0.4308
Li    Li1028        0.6315    0.6341    0.5821
Li    Li1029        0.7529    0.6287    0.6805
Li    Li1030        0.6376    0.6405    0.8134
Li    Li1031        0.7456    0.6320    0.9147
Li    Li1032        0.7487    0.6114    0.7951
Li    Li1033        0.6247    0.7445    0.4407
Li    Li1034        0.5089    0.7879    0.4417
Li    Li1035        0.6286    0.7152    0.4406
Li    Li1036        0.7265    0.7553    0.6872
Li    Li1037        0.6502    0.7016    0.6873
Li    Li1038        0.4960    0.7631    0.8159
Li    Li1039        0.5030    0.8613    0.0620
Li    Li1040        0.5074    0.8804    0.1817
Li    Li1041        0.6197    0.8918    0.0575
Li    Li1042        0.6234    0.8242    0.3353
Li    Li1043        0.5115    0.8929    0.4313
Li    Li1044        0.6174    0.8883    0.2971
Li    Li1045        0.6350    0.8312    0.5612
Li    Li1046        0.7417    0.8162    0.5613
Li    Li1047        0.6310    0.8128    0.7031
Li    Li1048        0.4993    0.8822    0.9414
Li    Li1049        0.7437    0.8182    0.8097
Li    Li1050        0.6175    0.8855    0.8073
Li    Li1051        0.5017    0.9631    0.3268
Li    Li1052        0.6249    0.9783    0.3048
Li    Li1053        0.5040    0.9946    0.6763
Li    Li1054        0.7243    0.9053    0.5515
Li    Li1055        0.4808    0.9915    0.9461
Li    Li1056        0.7385    0.9178    0.8222
Li    Li1057        0.6293    0.9839    0.7970
Li    Li1058        0.9824    0.0391    0.1869
Li    Li1059        0.8894    0.0373    0.3231
Li    Li1060        0.8608    0.0694    0.4003
Li    Li1061        0.0007    0.0302    0.4263
Li    Li1062        0.8780    0.0955    0.3036
Li    Li1063        0.8806    0.0386    0.5668
Li    Li1064        0.8657    0.0763    0.5737
Li    Li1065        0.8821    0.0196    0.7004
Li    Li1066        0.7548    0.0654    0.8231
Li    Li1067        0.8552    0.0897    0.8030
Li    Li1068        0.9899    0.1390    0.1756
Li    Li1069        0.7613    0.1686    0.0585
Li    Li1070        0.9883    0.1128    0.3192
Li    Li1071        0.8815    0.1071    0.4344
Li    Li1072        0.9904    0.1380    0.6896
Li    Li1073        0.8774    0.1390    0.8276
Li    Li1074        0.7624    0.1868    0.9442
Li    Li1075        0.8597    0.1913    0.7956
Li    Li1076        0.9005    0.2464    0.0555
Li    Li1077        0.8711    0.2575    0.6973
Li    Li1078        0.7671    0.2909    0.6912
Li    Li1079        0.8838    0.2158    0.7065
Li    Li1080        0.8818    0.2419    0.8071
Li    Li1081        0.8814    0.2509    0.9309
Li    Li1082        0.9854    0.2028    0.8047
Li    Li1083        0.9949    0.3046    0.0591
Li    Li1084        0.8796    0.3357    0.3221
Li    Li1085        0.7667    0.3930    0.4415
Li    Li1086        0.9901    0.3079    0.3098
Li    Li1087        0.9906    0.3248    0.6731
Li    Li1088        0.7619    0.3902    0.6875
Li    Li1089        0.8825    0.3300    0.8298
Li    Li1090        0.8635    0.3552    0.9477
Li    Li1091        0.9931    0.3332    0.9316
Li    Li1092        0.7427    0.3627    0.8245
Li    Li1093        0.7568    0.3936    0.9391
Li    Li1094        0.8506    0.3961    0.8166
Li    Li1095        0.7600    0.4727    0.0518
Li    Li1096        0.8484    0.4518    0.4298
Li    Li1097        0.9898    0.4366    0.4380
Li    Li1098        0.9841    0.3977    0.5558
Li    Li1099        0.8586    0.4152    0.7028
Li    Li1100        0.8864    0.4174    0.8106
Li    Li1101        0.8654    0.4718    0.9230
Li    Li1102        0.8876    0.5432    0.3038
Li    Li1103        0.8687    0.5815    0.2917
Li    Li1104        0.8832    0.5171    0.4484
Li    Li1105        0.7606    0.5839    0.7168
Li    Li1106        0.0166    0.5001    0.5521
Li    Li1107        0.8663    0.5060    0.7009
Li    Li1108        0.9896    0.5355    0.9365
Li    Li1109        0.9857    0.5102    0.8209
Li    Li1110        0.9886    0.6206    0.3119
Li    Li1111        0.7390    0.6801    0.6924
Li    Li1112        0.8648    0.6935    0.8154
Li    Li1113        0.9894    0.7417    0.4335
Li    Li1114        0.8774    0.7328    0.8073
Li    Li1115        0.8742    0.7676    0.9195
Li    Li1116        0.8789    0.7075    0.9543
Li    Li1117        0.7349    0.8617    0.5623
Li    Li1118        0.8826    0.9491    0.5610
Li    Li1119        0.9890    0.9111    0.5585
Li    Li1120        0.8867    0.9034    0.6836
Li    Li1121        0.8736    0.9916    0.8332
Li    Li1122        0.2014    0.0566    0.2278
Li    Li1123        0.0426    0.1041    0.1422
Li    Li1124        0.0783    0.0595    0.4797
Li    Li1125        0.1728    0.0527    0.2458
Li    Li1126        0.2093    0.0446    0.4775
Li    Li1127        0.0420    0.1006    0.3706
Li    Li1128        0.1689    0.9956    0.3893
Li    Li1129        0.0757    0.0878    0.3587
Li    Li1130        0.0530    0.0559    0.5065
Li    Li1131        0.0884    0.0986    0.6133
Li    Li1132        0.0748    0.0845    0.8567
Li    Li1133        0.2050    0.1428    0.2412
Li    Li1134        0.0461    0.2003    0.1357
Li    Li1135        0.0852    0.1475    0.4818
Li    Li1136        0.2133    0.1007    0.3704
Li    Li1137        0.1707    0.1087    0.3873
Li    Li1138        0.0410    0.1512    0.5065
Li    Li1139        0.2162    0.1549    0.7292
Li    Li1140        0.2071    0.1056    0.6076
Li    Li1141        0.0869    0.1605    0.9777
Li    Li1142        0.0393    0.1518    0.7621
Li    Li1143        0.1745    0.2506    0.0087
Li    Li1144        0.0812    0.3103    0.3717
Li    Li1145        0.0349    0.2581    0.5060
Li    Li1146        0.2097    0.2600    0.7140
Li    Li1147        0.0466    0.3047    0.6411
Li    Li1148        0.1695    0.1999    0.6403
Li    Li1149        0.0887    0.2924    0.6122
Li    Li1150        0.0429    0.3850    0.1433
Li    Li1151        0.0812    0.3514    0.4749
Li    Li1152        0.1697    0.3425    0.2696
Li    Li1153        0.2077    0.3510    0.4832
Li    Li1154        0.2013    0.3041    0.3732
Li    Li1155        0.0595    0.3814    0.3785
Li    Li1156        0.0491    0.3540    0.5104
Li    Li1157        0.0659    0.3711    0.9923
Li    Li1158        0.2030    0.3547    0.9844
Li    Li1159        0.2107    0.2988    0.8777
Li    Li1160        0.0758    0.3838    0.8655
Li    Li1161        0.2140    0.3986    0.1290
Li    Li1162        0.0460    0.4970    0.1519
Li    Li1163        0.0813    0.4880    0.1103
Li    Li1164        0.1675    0.4506    0.2504
Li    Li1165        0.0371    0.4521    0.2585
Li    Li1166        0.2138    0.4331    0.4665
Li    Li1167        0.1954    0.3983    0.3651
Li    Li1168        0.1691    0.4179    0.3962
Li    Li1169        0.0705    0.5035    0.3733
Li    Li1170        0.0421    0.4605    0.5147
Li    Li1171        0.2111    0.4388    0.7308
Li    Li1172        0.1686    0.4069    0.6504
Li    Li1173        0.0808    0.4626    0.9821
Li    Li1174        0.0409    0.4519    0.7658
Li    Li1175        0.2069    0.4401    0.9755
Li    Li1176        0.2056    0.4113    0.8612
Li    Li1177        0.0721    0.4904    0.8628
Li    Li1178        0.2068    0.5084    0.6089
Li    Li1179        0.0364    0.5980    0.6476
Li    Li1180        0.1664    0.4983    0.6532
Li    Li1181        0.1723    0.5416    0.7605
Li    Li1182        0.2077    0.5071    0.8581
Li    Li1183        0.0876    0.6460    0.2502
Li    Li1184        0.0825    0.6454    0.4903
Li    Li1185        0.2106    0.6528    0.4718
Li    Li1186        0.2075    0.6014    0.3511
Li    Li1187        0.1724    0.6073    0.3882
Li    Li1188        0.1636    0.6498    0.5057
Li    Li1189        0.0822    0.6596    0.9771
Li    Li1190        0.2096    0.6490    0.9831
Li    Li1191        0.2059    0.7064    0.3611
Li    Li1192        0.1678    0.7526    0.5183
Li    Li1193        0.0386    0.7937    0.6346
Li    Li1194        0.1744    0.6985    0.6395
Li    Li1195        0.0924    0.8004    0.5997
Li    Li1196        0.0454    0.8562    0.2621
Li    Li1197        0.2141    0.8430    0.5186
Li    Li1198        0.1771    0.8006    0.6362
Li    Li1199        0.0784    0.9651    0.4855
Li    Li1200        0.2062    0.8979    0.3564
Li    Li1201        0.1688    0.9026    0.3769
Li    Li1202        0.1679    0.9492    0.5095
Li    Li1203        0.4513    0.0064    0.1148
Li    Li1204        0.4239    0.0445    0.2709
Li    Li1205        0.4576    0.0473    0.9800
Li    Li1206        0.2950    0.1449    0.0158
Li    Li1207        0.2942    0.1950    0.1381
Li    Li1208        0.3294    0.1973    0.1221
Li    Li1209        0.4629    0.1003    0.3617
Li    Li1210        0.4268    0.0981    0.3845
Li    Li1211        0.3249    0.1564    0.7337
Li    Li1212        0.4239    0.1524    0.7680
Li    Li1213        0.4639    0.1500    0.9934
Li    Li1214        0.3084    0.1834    0.8766
Li    Li1215        0.4202    0.1133    0.8937
Li    Li1216        0.3356    0.1930    0.8594
Li    Li1217        0.4190    0.2357    0.0102
Li    Li1218        0.2883    0.2554    0.0060
Li    Li1219        0.4644    0.2003    0.1133
Li    Li1220        0.4109    0.2017    0.1426
Li    Li1221        0.3261    0.2879    0.1127
Li    Li1222        0.4198    0.2391    0.2709
Li    Li1223        0.4584    0.2518    0.7347
Li    Li1224        0.3416    0.2487    0.9969
Li    Li1225        0.2979    0.2532    0.7623
Li    Li1226        0.4236    0.2044    0.8908
Li    Li1227        0.3334    0.3035    0.8528
Li    Li1228        0.3366    0.3589    0.2362
Li    Li1229        0.4160    0.3490    0.0245
Li    Li1230        0.2865    0.3514    0.9992
Li    Li1231        0.4612    0.3490    0.2484
Li    Li1232        0.4584    0.2939    0.1052
Li    Li1233        0.2993    0.3952    0.1539
Li    Li1234        0.4106    0.3039    0.1287
Li    Li1235        0.3378    0.3957    0.1091
Li    Li1236        0.4204    0.3477    0.2672
Li    Li1237        0.2781    0.3547    0.4950
Li    Li1238        0.4760    0.3114    0.6331
Li    Li1239        0.2958    0.4024    0.6360
Li    Li1240        0.4143    0.2969    0.8944
Li    Li1241        0.2865    0.4458    0.0070
Li    Li1242        0.4569    0.4382    0.2338
Li    Li1243        0.4587    0.4090    0.1048
Li    Li1244        0.3173    0.4584    0.7346
Li    Li1245        0.2890    0.4958    0.6519
Li    Li1246        0.3213    0.4603    0.9999
Li    Li1247        0.3272    0.5569    0.2375
Li    Li1248        0.4581    0.5522    0.2354
Li    Li1249        0.4585    0.4990    0.1023
Li    Li1250        0.4188    0.4954    0.1413
Li    Li1251        0.2893    0.6011    0.3843
Li    Li1252        0.4172    0.5106    0.3869
Li    Li1253        0.2974    0.5541    0.5149
Li    Li1254        0.3270    0.5552    0.9819
Li    Li1255        0.4286    0.5561    0.7464
Li    Li1256        0.2955    0.5559    0.7728
Li    Li1257        0.2910    0.5954    0.8991
Li    Li1258        0.3303    0.6508    0.2280
Li    Li1259        0.4565    0.6524    0.2324
Li    Li1260        0.4632    0.5988    0.0943
Li    Li1261        0.2922    0.7034    0.1436
Li    Li1262        0.3369    0.6958    0.1013
Li    Li1263        0.3286    0.6505    0.4896
Li    Li1264        0.4648    0.6539    0.4973
Li    Li1265        0.2781    0.6947    0.3768
Li    Li1266        0.3304    0.6462    0.7326
Li    Li1267        0.2974    0.6468    0.5136
Li    Li1268        0.4516    0.6065    0.6039
Li    Li1269        0.2782    0.6566    0.7509
Li    Li1270        0.4583    0.6453    0.9860
Li    Li1271        0.4595    0.5943    0.8495
Li    Li1272        0.4229    0.7429    0.0164
Li    Li1273        0.4242    0.7355    0.2660
Li    Li1274        0.4545    0.7380    0.7379
Li    Li1275        0.4602    0.7035    0.6165
Li    Li1276        0.4594    0.7519    0.9840
Li    Li1277        0.4597    0.8525    0.2307
Li    Li1278        0.4121    0.8020    0.1247
Li    Li1279        0.4196    0.8461    0.2557
Li    Li1280        0.4539    0.8420    0.4878
Li    Li1281        0.4605    0.7929    0.3690
Li    Li1282        0.4210    0.8381    0.5215
Li    Li1283        0.2898    0.8483    0.5067
Li    Li1284        0.4507    0.7938    0.6075
Li    Li1285        0.3355    0.9057    0.6079
Li    Li1286        0.2974    0.8488    0.7689
Li    Li1287        0.3355    0.9540    0.2356
Li    Li1288        0.4175    0.9542    0.2638
Li    Li1289        0.4526    0.8945    0.3531
Li    Li1290        0.2951    0.9905    0.3946
Li    Li1291        0.3345    0.9889    0.3634
Li    Li1292        0.4082    0.9528    0.5018
Li    Li1293        0.4515    0.9535    0.7358
Li    Li1294        0.5660    0.0608    0.4905
Li    Li1295        0.5426    0.0986    0.3979
Li    Li1296        0.6661    0.0557    0.5244
Li    Li1297        0.5456    0.0537    0.5173
Li    Li1298        0.7107    0.0528    0.7375
Li    Li1299        0.7051    0.9967    0.6158
Li    Li1300        0.6688    0.0500    0.7633
Li    Li1301        0.7051    0.1418    0.4863
Li    Li1302        0.7119    0.1496    0.9950
Li    Li1303        0.5821    0.1988    0.8607
Li    Li1304        0.6649    0.2083    0.1404
Li    Li1305        0.5512    0.2560    0.2562
Li    Li1306        0.5634    0.2880    0.3597
Li    Li1307        0.6638    0.2574    0.5300
Li    Li1308        0.5828    0.2920    0.6126
Li    Li1309        0.7039    0.1959    0.8597
Li    Li1310        0.5544    0.2884    0.8757
Li    Li1311        0.5461    0.3441    0.0123
Li    Li1312        0.7054    0.3112    0.1081
Li    Li1313        0.5499    0.3676    0.2720
Li    Li1314        0.7059    0.3109    0.6075
Li    Li1315        0.7166    0.3427    0.9895
Li    Li1316        0.6661    0.4441    0.0145
Li    Li1317        0.5839    0.4479    0.9861
Li    Li1318        0.7001    0.4453    0.9792
Li    Li1319        0.7038    0.3942    0.8501
Li    Li1320        0.5774    0.5630    0.2379
Li    Li1321        0.5360    0.5990    0.3838
Li    Li1322        0.5831    0.5945    0.3577
Li    Li1323        0.5507    0.6036    0.6387
Li    Li1324        0.5823    0.5952    0.6025
Li    Li1325        0.5832    0.5529    0.9933
Li    Li1326        0.5502    0.5880    0.8908
Li    Li1327        0.5816    0.6539    0.2379
Li    Li1328        0.5859    0.6525    0.4875
Li    Li1329        0.5454    0.6624    0.2636
Li    Li1330        0.6976    0.6499    0.4814
Li    Li1331        0.7112    0.6385    0.7367
Li    Li1332        0.6679    0.6083    0.6387
Li    Li1333        0.5844    0.6881    0.6045
Li    Li1334        0.5394    0.7628    0.0184
Li    Li1335        0.5352    0.8061    0.3784
Li    Li1336        0.5440    0.7620    0.5269
Li    Li1337        0.7107    0.8550    0.2451
Li    Li1338        0.5387    0.8996    0.1511
Li    Li1339        0.5802    0.8624    0.4772
Li    Li1340        0.6666    0.7949    0.3914
Li    Li1341        0.5837    0.8634    0.7388
Li    Li1342        0.7002    0.8482    0.7292
Li    Li1343        0.5439    0.8930    0.6427
Li    Li1344        0.5762    0.8977    0.6122
Li    Li1345        0.5754    0.8655    0.9809
Li    Li1346        0.5548    0.8573    0.7608
Li    Li1347        0.7076    0.8016    0.8738
Li    Li1348        0.5540    0.8822    0.8802
Li    Li1349        0.6561    0.9008    0.3714
Li    Li1350        0.6641    0.9424    0.5139
Li    Li1351        0.5384    0.9555    0.5045
Li    Li1352        0.5279    0.0082    0.6400
Li    Li1353        0.5283    0.9889    0.8793
Li    Li1354        0.9538    0.0372    0.2328
Li    Li1355        0.9132    0.0480    0.2772
Li    Li1356        0.9288    0.0191    0.3760
Li    Li1357        0.9524    0.9987    0.6036
Li    Li1358        0.9232    0.0070    0.6347
Li    Li1359        0.8295    0.1074    0.6092
Li    Li1360        0.8343    0.0572    0.9814
Li    Li1361        0.9141    0.0571    0.7788
Li    Li1362        0.7987    0.0487    0.7681
Li    Li1363        0.9563    0.0468    0.9890
Li    Li1364        0.9179    0.0134    0.8962
Li    Li1365        0.7940    0.1617    0.0151
Li    Li1366        0.9574    0.1512    0.2445
Li    Li1367        0.7931    0.2101    0.1388
Li    Li1368        0.9182    0.1152    0.1387
Li    Li1369        0.9559    0.0939    0.3642
Li    Li1370        0.9632    0.0986    0.8536
Li    Li1371        0.9211    0.0942    0.8792
Li    Li1372        0.8016    0.2559    0.0083
Li    Li1373        0.7888    0.2947    0.1428
Li    Li1374        0.9012    0.2113    0.1239
Li    Li1375        0.8345    0.2623    0.7365
Li    Li1376        0.8015    0.2951    0.6359
Li    Li1377        0.8046    0.2605    0.7722
Li    Li1378        0.8020    0.2913    0.8758
Li    Li1379        0.9065    0.2083    0.8773
Li    Li1380        0.8317    0.3543    0.2369
Li    Li1381        0.7932    0.4050    0.1400
Li    Li1382        0.8334    0.3566    0.4778
Li    Li1383        0.8035    0.3471    0.2664
Li    Li1384        0.9527    0.3494    0.4782
Li    Li1385        0.9530    0.3017    0.3623
Li    Li1386        0.8295    0.3533    0.7311
Li    Li1387        0.7934    0.3589    0.5155
Li    Li1388        0.7965    0.3889    0.6443
Li    Li1389        0.8000    0.3359    0.7546
Li    Li1390        0.9159    0.3022    0.8869
Li    Li1391        0.9074    0.4479    0.0077
Li    Li1392        0.9554    0.4533    0.2356
Li    Li1393        0.8315    0.4469    0.4730
Li    Li1394        0.9448    0.4246    0.4939
Li    Li1395        0.8410    0.4988    0.6132
Li    Li1396        0.8321    0.4493    0.9861
Li    Li1397        0.8431    0.4978    0.8483
Li    Li1398        0.9540    0.5105    0.3545
Li    Li1399        0.8233    0.5944    0.3693
Li    Li1400        0.8342    0.5534    0.7296
Li    Li1401        0.9588    0.4964    0.6069
Li    Li1402        0.9179    0.5517    0.7691
Li    Li1403        0.7917    0.6043    0.8788
Li    Li1404        0.9562    0.6097    0.3594
Li    Li1405        0.9603    0.6374    0.7304
Li    Li1406        0.9485    0.6049    0.6222
Li    Li1407        0.9152    0.6113    0.6359
Li    Li1408        0.7852    0.6571    0.7612
Li    Li1409        0.7816    0.6957    0.8732
Li    Li1410        0.8322    0.6975    0.8604
Li    Li1411        0.9211    0.7497    0.0087
Li    Li1412        0.7960    0.7601    0.0069
Li    Li1413        0.9518    0.7574    0.4994
Li    Li1414        0.8338    0.7535    0.7229
Li    Li1415        0.8338    0.7583    0.9863
Li    Li1416        0.7885    0.7509    0.7611
Li    Li1417        0.9499    0.7537    0.9793
Li    Li1418        0.9498    0.7050    0.8719
Li    Li1419        0.8012    0.7898    0.8898
Li    Li1420        0.7968    0.8550    0.2724
Li    Li1421        0.8344    0.9566    0.4846
Li    Li1422        0.9653    0.9484    0.5061
Li    Li1423        0.8294    0.9539    0.7402
Li    Li1424        0.7896    0.9615    0.5156
Li    Li1425        0.7895    0.9960    0.6427
Li    Li1426        0.1417    0.0670    0.1529
Li    Li1427        0.1431    0.0397    0.2075
Li    Li1428        0.9817    0.0342    0.0228
Li    Li1429        0.0017    0.0117    0.3983
Li    Li1430        0.2479    0.0944    0.3488
Li    Li1431        0.1222    0.0087    0.3524
Li    Li1432        0.1147    0.0828    0.3949
Li    Li1433        0.2663    0.0719    0.4761
Li    Li1434        0.9828    0.0393    0.2910
Li    Li1435        0.2597    0.0682    0.8506
Li    Li1436        0.1337    0.0650    0.7779
Li    Li1437        0.9960    0.0332    0.7648
Li    Li1438        0.1262    0.1581    0.0304
Li    Li1439        0.1330    0.1387    0.2132
Li    Li1440        0.0033    0.1347    0.0347
Li    Li1441        0.1314    0.1377    0.4725
Li    Li1442        0.2567    0.1590    0.4685
Li    Li1443        0.9877    0.1349    0.2895
Li    Li1444        0.9942    0.1164    0.6491
Li    Li1445        0.1436    0.1868    0.6490
Li    Li1446        0.1277    0.1630    0.5298
Li    Li1447        0.2512    0.1637    0.7136
Li    Li1448        0.9886    0.1096    0.9024
Li    Li1449        0.1266    0.1044    0.8391
Li    Li1450        0.1096    0.1865    0.9084
Li    Li1451        0.9966    0.1372    0.7835
Li    Li1452        0.2488    0.2941    0.0905
Li    Li1453        0.1293    0.2123    0.0878
Li    Li1454        0.1205    0.2590    0.0265
Li    Li1455        0.1059    0.2301    0.2251
Li    Li1456        0.2575    0.2680    0.2289
Li    Li1457        0.2370    0.2868    0.3457
Li    Li1458        0.1256    0.2920    0.4027
Li    Li1459        0.1152    0.2577    0.2766
Li    Li1460        0.0058    0.2122    0.6544
Li    Li1461        0.1108    0.2155    0.5992
Li    Li1462        0.1223    0.2832    0.6465
Li    Li1463        0.1172    0.2566    0.5283
Li    Li1464        0.1215    0.2385    0.7203
Li    Li1465        0.0163    0.2310    0.5335
Li    Li1466        0.9994    0.2170    0.8924
Li    Li1467        0.2573    0.2920    0.8390
Li    Li1468        0.1244    0.2614    0.7811
Li    Li1469        0.2733    0.2637    0.9720
Li    Li1470        0.9957    0.2336    0.7921
Li    Li1471        0.1362    0.3088    0.0917
Li    Li1472        0.1289    0.3639    0.0320
Li    Li1473        0.1244    0.3398    0.2203
Li    Li1474        0.2519    0.3652    0.2173
Li    Li1475        0.0003    0.3335    0.0289
Li    Li1476        0.2445    0.3913    0.3372
Li    Li1477        0.1295    0.3876    0.4031
Li    Li1478        0.1384    0.3679    0.2809
Li    Li1479        0.9964    0.3397    0.2878
Li    Li1480        0.0022    0.3135    0.6516
Li    Li1481        0.2620    0.3754    0.6051
Li    Li1482        0.1254    0.3059    0.5965
Li    Li1483        0.2540    0.3891    0.8406
Li    Li1484        0.1236    0.3418    0.9750
Li    Li1485        0.9945    0.3337    0.7736
Li    Li1486        0.0170    0.4126    0.1533
Li    Li1487        0.1379    0.4130    0.1008
Li    Li1488        0.1252    0.4402    0.2128
Li    Li1489        0.9948    0.4026    0.4033
Li    Li1490        0.1459    0.4068    0.3549
Li    Li1491        0.1252    0.4609    0.2786
Li    Li1492        0.0028    0.4090    0.6486
Li    Li1493        0.2484    0.4924    0.6176
Li    Li1494        0.1327    0.5043    0.6331
Li    Li1495        0.9928    0.4378    0.5266
Li    Li1496        0.9991    0.4144    0.9067
Li    Li1497        0.2484    0.4885    0.8431
Li    Li1498        0.1457    0.4207    0.8519
Li    Li1499        0.1258    0.4839    0.9020
Li    Li1500        0.0965    0.5174    0.0948
Li    Li1501        0.0226    0.5096    0.3925
Li    Li1502        0.2384    0.5863    0.3451
Li    Li1503        0.1230    0.5133    0.3577
Li    Li1504        0.2511    0.5620    0.4755
Li    Li1505        0.9945    0.5106    0.6597
Li    Li1506        0.1419    0.5875    0.6531
Li    Li1507        0.1178    0.5571    0.5208
Li    Li1508        0.1356    0.5442    0.7163
Li    Li1509        0.0040    0.5082    0.9070
Li    Li1510        0.2468    0.5909    0.8477
Li    Li1511        0.1267    0.6023    0.8992
Li    Li1512        0.1280    0.5677    0.7670
Li    Li1513        0.2512    0.5583    0.9641
Li    Li1514        0.1111    0.6347    0.2212
Li    Li1515        0.2505    0.6653    0.2246
Li    Li1516        0.9877    0.6212    0.4007
Li    Li1517        0.2665    0.6827    0.3427
Li    Li1518        0.1121    0.6919    0.4123
Li    Li1519        0.2535    0.6637    0.4729
Li    Li1520        0.9859    0.6053    0.6627
Li    Li1521        0.2699    0.6921    0.5842
Li    Li1522        0.1358    0.6121    0.5946
Li    Li1523        0.1064    0.6614    0.5224
Li    Li1524        0.1342    0.6334    0.7330
Li    Li1525        0.9945    0.6386    0.5182
Li    Li1526        0.1336    0.6157    0.8404
Li    Li1527        0.1135    0.6611    0.7813
Li    Li1528        0.1297    0.6383    0.9620
Li    Li1529        0.2461    0.6518    0.9737
Li    Li1530        0.0081    0.6383    0.7728
Li    Li1531        0.9936    0.7129    0.4074
Li    Li1532        0.1324    0.7146    0.3415
Li    Li1533        0.1356    0.7310    0.4775
Li    Li1534        0.2322    0.7853    0.5952
Li    Li1535        0.1247    0.7927    0.6545
Li    Li1536        0.1068    0.7635    0.5335
Li    Li1537        0.1417    0.7378    0.7207
Li    Li1538        0.9865    0.7415    0.5234
Li    Li1539        0.1124    0.7124    0.8449
Li    Li1540        0.1081    0.8892    0.3969
Li    Li1541        0.1240    0.8450    0.4631
Li    Li1542        0.2652    0.8540    0.4623
Li    Li1543        0.2511    0.8909    0.5955
Li    Li1544        0.1425    0.8677    0.5314
Li    Li1545        0.1204    0.9841    0.1567
Li    Li1546        0.2393    0.9633    0.2194
Li    Li1547        0.1230    0.9078    0.3393
Li    Li1548        0.1000    0.9747    0.3924
Li    Li1549        0.1277    0.9659    0.2733
Li    Li1550        0.1255    0.9402    0.4692
Li    Li1551        0.1068    0.9147    0.6010
Li    Li1552        0.9980    0.9335    0.5161
Li    Li1553        0.3653    0.0151    0.0940
Li    Li1554        0.3647    0.0605    0.0253
Li    Li1555        0.2487    0.0116    0.4031
Li    Li1556        0.4889    0.0855    0.3371
Li    Li1557        0.3924    0.0169    0.3461
Li    Li1558        0.3858    0.0872    0.4074
Li    Li1559        0.2530    0.0408    0.5130
Li    Li1560        0.3805    0.0894    0.8986
Li    Li1561        0.2543    0.0331    0.7840
Li    Li1562        0.2320    0.1058    0.1653
Li    Li1563        0.4935    0.1804    0.1020
Li    Li1564        0.3645    0.1798    0.1312
Li    Li1565        0.3942    0.1319    0.2265
Li    Li1566        0.3871    0.1185    0.3512
Li    Li1567        0.3818    0.1613    0.2784
Li    Li1568        0.2552    0.1351    0.2807
Li    Li1569        0.2441    0.1202    0.6417
Li    Li1570        0.3604    0.1348    0.7318
Li    Li1571        0.5040    0.1863    0.8470
Li    Li1572        0.3615    0.1855    0.8883
Li    Li1573        0.4971    0.1599    0.9765
Li    Li1574        0.2526    0.1405    0.7650
Li    Li1575        0.3608    0.2085    0.0910
Li    Li1576        0.3820    0.2847    0.1537
Li    Li1577        0.3538    0.2637    0.0167
Li    Li1578        0.3846    0.2431    0.2142
Li    Li1579        0.5104    0.2681    0.2274
Li    Li1580        0.2412    0.2360    0.0189
Li    Li1581        0.3764    0.2109    0.3431
Li    Li1582        0.4972    0.2910    0.6000
Li    Li1583        0.3899    0.2796    0.6501
Li    Li1584        0.3830    0.2362    0.7209
Li    Li1585        0.5096    0.2579    0.7150
Li    Li1586        0.2237    0.2479    0.5400
Li    Li1587        0.3707    0.2953    0.9066
Li    Li1588        0.3592    0.2596    0.7672
Li    Li1589        0.3719    0.2395    0.9724
Li    Li1590        0.5007    0.3909    0.0937
Li    Li1591        0.3805    0.3000    0.0920
Li    Li1592        0.3681    0.3936    0.1657
Li    Li1593        0.3841    0.3424    0.2109
Li    Li1594        0.5032    0.3613    0.2351
Li    Li1595        0.2662    0.3468    0.0104
Li    Li1596        0.2408    0.3117    0.4208
Li    Li1597        0.3581    0.3949    0.4210
Li    Li1598        0.3768    0.3673    0.2806
Li    Li1599        0.3574    0.3359    0.4745
Li    Li1600        0.3791    0.3439    0.7087
Li    Li1601        0.2525    0.3413    0.5299
Li    Li1602        0.2443    0.3084    0.9125
Li    Li1603        0.3829    0.3423    0.9664
Li    Li1604        0.4850    0.3656    0.9693
Li    Li1605        0.4831    0.4813    0.0942
Li    Li1606        0.3617    0.4111    0.1177
Li    Li1607        0.3769    0.4784    0.1531
Li    Li1608        0.3603    0.4706    0.0246
Li    Li1609        0.2574    0.4545    0.0118
Li    Li1610        0.3957    0.4191    0.3491
Li    Li1611        0.3715    0.4900    0.4155
Li    Li1612        0.3633    0.4641    0.2594
Li    Li1613        0.2447    0.4372    0.2744
Li    Li1614        0.2337    0.4186    0.6535
Li    Li1615        0.3923    0.4300    0.7359
Li    Li1616        0.2620    0.4267    0.5314
Li    Li1617        0.3765    0.4964    0.9064
Li    Li1618        0.3729    0.4574    0.7770
Li    Li1619        0.2494    0.5054    0.1585
Li    Li1620        0.3615    0.5842    0.1392
Li    Li1621        0.3641    0.5701    0.0185
Li    Li1622        0.4032    0.5218    0.2331
Li    Li1623        0.5054    0.5629    0.2262
Li    Li1624        0.3811    0.5075    0.3333
Li    Li1625        0.2290    0.5146    0.6632
Li    Li1626        0.3601    0.5905    0.6675
Li    Li1627        0.3748    0.5632    0.5182
Li    Li1628        0.2399    0.5429    0.5348
Li    Li1629        0.2452    0.5092    0.9110
Li    Li1630        0.4980    0.5836    0.8372
Li    Li1631        0.3827    0.5224    0.8504
Li    Li1632        0.3861    0.5609    0.7738
Li    Li1633        0.3766    0.5416    0.9746
Li    Li1634        0.2672    0.5391    0.7730
Li    Li1635        0.2452    0.6041    0.1579
Li    Li1636        0.3750    0.6944    0.1337
Li    Li1637        0.3901    0.6345    0.2251
Li    Li1638        0.2512    0.6391    0.0265
Li    Li1639        0.2504    0.6171    0.4086
Li    Li1640        0.5110    0.6921    0.3460
Li    Li1641        0.3945    0.6659    0.2805
Li    Li1642        0.2706    0.6097    0.6517
Li    Li1643        0.3783    0.6144    0.5935
Li    Li1644        0.3659    0.6584    0.5309
Li    Li1645        0.3787    0.6321    0.7183
Li    Li1646        0.2587    0.6444    0.5198
Li    Li1647        0.3906    0.6633    0.7799
Li    Li1648        0.3591    0.6306    0.9732
Li    Li1649        0.2376    0.6357    0.7758
Li    Li1650        0.4848    0.7933    0.0947
Li    Li1651        0.2414    0.7149    0.3939
Li    Li1652        0.5103    0.7870    0.3370
Li    Li1653        0.3679    0.7448    0.4896
Li    Li1654        0.2204    0.7354    0.6477
Li    Li1655        0.5004    0.7837    0.5966
Li    Li1656        0.3656    0.7134    0.5971
Li    Li1657        0.3808    0.7663    0.5240
Li    Li1658        0.5036    0.7626    0.7311
Li    Li1659        0.2524    0.7401    0.5227
Li    Li1660        0.5031    0.7869    0.8382
Li    Li1661        0.5035    0.7579    0.9717
Li    Li1662        0.5163    0.8864    0.0985
Li    Li1663        0.3763    0.8450    0.2137
Li    Li1664        0.5101    0.8671    0.2281
Li    Li1665        0.4955    0.8825    0.3463
Li    Li1666        0.5013    0.8558    0.4693
Li    Li1667        0.4871    0.8793    0.5956
Li    Li1668        0.3819    0.8629    0.5312
Li    Li1669        0.5076    0.8699    0.7260
Li    Li1670        0.2572    0.8375    0.5348
Li    Li1671        0.5027    0.8916    0.8391
Li    Li1672        0.5103    0.8781    0.9742
Li    Li1673        0.2427    0.9050    0.1551
Li    Li1674        0.5000    0.9851    0.0962
Li    Li1675        0.3814    0.9910    0.1531
Li    Li1676        0.2405    0.9249    0.4043
Li    Li1677        0.5123    0.9687    0.3516
Li    Li1678        0.3780    0.9637    0.2757
Li    Li1679        0.3856    0.9372    0.4669
Li    Li1680        0.5230    0.9435    0.4521
Li    Li1681        0.2476    0.9164    0.6476
Li    Li1682        0.5188    0.9982    0.5803
Li    Li1683        0.3669    0.9147    0.5976
Li    Li1684        0.3638    0.9634    0.5234
Li    Li1685        0.3824    0.9386    0.7163
Li    Li1686        0.5136    0.0130    0.4000
Li    Li1687        0.6345    0.0170    0.3516
Li    Li1688        0.7528    0.0591    0.4742
Li    Li1689        0.4890    0.0125    0.6749
Li    Li1690        0.6330    0.0114    0.5811
Li    Li1691        0.6308    0.0440    0.7118
Li    Li1692        0.5027    0.0435    0.5346
Li    Li1693        0.4944    0.0091    0.9083
Li    Li1694        0.7589    0.0886    0.8417
Li    Li1695        0.6348    0.0117    0.8441
Li    Li1696        0.4834    0.1198    0.1451
Li    Li1697        0.7527    0.1918    0.0988
Li    Li1698        0.6199    0.1794    0.1479
Li    Li1699        0.6123    0.1720    0.0208
Li    Li1700        0.4987    0.1062    0.4096
Li    Li1701        0.7570    0.1611    0.9656
Li    Li1702        0.5016    0.2121    0.1618
Li    Li1703        0.7594    0.2798    0.0945
Li    Li1704        0.6250    0.2124    0.0953
Li    Li1705        0.6279    0.2914    0.1566
Li    Li1706        0.6172    0.2669    0.0359
Li    Li1707        0.4871    0.2393    0.2928
Li    Li1708        0.4696    0.2110    0.6554
Li    Li1709        0.7275    0.2836    0.5901
Li    Li1710        0.6253    0.2853    0.6524
Li    Li1711        0.6210    0.2636    0.5340
Li    Li1712        0.7275    0.2635    0.7212
Li    Li1713        0.4876    0.2350    0.5294
Li    Li1714        0.5014    0.2068    0.9003
Li    Li1715        0.7641    0.2926    0.8378
Li    Li1716        0.6296    0.2581    0.7807
Li    Li1717        0.5274    0.3127    0.1447
Li    Li1718        0.6325    0.3165    0.1043
Li    Li1719        0.6110    0.3790    0.1582
Li    Li1720        0.6134    0.3345    0.2217
Li    Li1721        0.4984    0.3349    0.0352
Li    Li1722        0.7489    0.3608    0.4778
Li    Li1723        0.7593    0.3796    0.5973
Li    Li1724        0.6254    0.3085    0.6024
Li    Li1725        0.7678    0.3597    0.7130
Li    Li1726        0.4795    0.3130    0.9080
Li    Li1727        0.7471    0.3937    0.8373
Li    Li1728        0.7541    0.4918    0.0886
Li    Li1729        0.6213    0.4575    0.0357
Li    Li1730        0.6035    0.4441    0.2344
Li    Li1731        0.6011    0.4732    0.2802
Li    Li1732        0.4968    0.4392    0.2758
Li    Li1733        0.6125    0.4791    0.8971
Li    Li1734        0.5201    0.5124    0.1609
Li    Li1735        0.6254    0.5851    0.1578
Li    Li1736        0.6146    0.5570    0.0405
Li    Li1737        0.7717    0.5936    0.3383
Li    Li1738        0.6236    0.5899    0.4018
Li    Li1739        0.6138    0.5620    0.2926
Li    Li1740        0.5118    0.5366    0.2785
Li    Li1741        0.6280    0.5900    0.6451
Li    Li1742        0.7683    0.5616    0.7201
Li    Li1743        0.4905    0.5270    0.8957
Li    Li1744        0.7400    0.5869    0.8528
Li    Li1745        0.6340    0.5316    0.9792
Li    Li1746        0.5018    0.6153    0.1599
Li    Li1747        0.6232    0.6113    0.0994
Li    Li1748        0.6040    0.6276    0.2234
Li    Li1749        0.5036    0.6118    0.3998
Li    Li1750        0.6280    0.6101    0.3421
Li    Li1751        0.6216    0.6393    0.4812
Li    Li1752        0.7435    0.6645    0.4758
Li    Li1753        0.6278    0.6761    0.6511
Li    Li1754        0.6355    0.6537    0.5291
Li    Li1755        0.7549    0.6586    0.7188
Li    Li1756        0.5042    0.6416    0.5278
Li    Li1757        0.5019    0.6069    0.8955
Li    Li1758        0.6243    0.6567    0.7821
Li    Li1759        0.4989    0.7389    0.0184
Li    Li1760        0.6220    0.7885    0.4058
Li    Li1761        0.6073    0.7660    0.2919
Li    Li1762        0.6296    0.7360    0.4799
Li    Li1763        0.4825    0.7318    0.2771
Li    Li1764        0.7524    0.7885    0.6008
Li    Li1765        0.6131    0.7377    0.7212
Li    Li1766        0.7589    0.7823    0.8467
Li    Li1767        0.6006    0.7852    0.9010
Li    Li1768        0.6127    0.7620    0.7869
Li    Li1769        0.5140    0.7386    0.7707
Li    Li1770        0.4858    0.8017    0.1641
Li    Li1771        0.6079    0.8837    0.1566
Li    Li1772        0.7527    0.8596    0.2128
Li    Li1773        0.5166    0.8378    0.0351
Li    Li1774        0.4990    0.8104    0.4031
Li    Li1775        0.7338    0.8645    0.4800
Li    Li1776        0.4996    0.8400    0.2793
Li    Li1777        0.7635    0.8758    0.6003
Li    Li1778        0.6057    0.8183    0.5933
Li    Li1779        0.6140    0.8631    0.5392
Li    Li1780        0.6436    0.8317    0.7288
Li    Li1781        0.5003    0.8411    0.5230
Li    Li1782        0.6272    0.8878    0.8926
Li    Li1783        0.6259    0.8633    0.7849
Li    Li1784        0.5031    0.8370    0.7752
Li    Li1785        0.6079    0.9215    0.0929
Li    Li1786        0.6259    0.9111    0.3414
Li    Li1787        0.6368    0.9321    0.4750
Li    Li1788        0.4947    0.9218    0.6549
Li    Li1789        0.7689    0.9896    0.5942
Li    Li1790        0.6370    0.9128    0.5759
Li    Li1791        0.6112    0.9978    0.6571
Li    Li1792        0.6168    0.9296    0.7209
Li    Li1793        0.7418    0.9845    0.8489
Li    Li1794        0.6378    0.9150    0.8491
Li    Li1795        0.6140    0.9538    0.7834
Li    Li1796        0.4912    0.9270    0.7694
Li    Li1797        0.8891    0.0338    0.2249
Li    Li1798        0.9947    0.0950    0.3580
Li    Li1799        0.8801    0.0873    0.3819
Li    Li1800        0.8797    0.0624    0.2725
Li    Li1801        0.8643    0.0376    0.4805
Li    Li1802        0.0092    0.0712    0.4775
Li    Li1803        0.7363    0.0132    0.6627
Li    Li1804        0.8849    0.0217    0.6062
Li    Li1805        0.8670    0.0863    0.6537
Li    Li1806        0.8582    0.0344    0.7376
Li    Li1807        0.9955    0.0561    0.7104
Li    Li1808        0.7475    0.0371    0.5266
Li    Li1809        0.0079    0.0786    0.8492
Li    Li1810        0.8832    0.0165    0.8496
Li    Li1811        0.8718    0.0832    0.9077
Li    Li1812        0.8463    0.0628    0.7874
Li    Li1813        0.8877    0.0382    0.9730
Li    Li1814        0.9826    0.0553    0.9761
Li    Li1815        0.7435    0.0417    0.7841
Li    Li1816        0.0085    0.1924    0.0930
Li    Li1817        0.8737    0.1115    0.0921
Li    Li1818        0.7501    0.1119    0.4000
Li    Li1819        0.8749    0.1190    0.3531
Li    Li1820        0.8919    0.1646    0.2757
Li    Li1821        0.8737    0.1189    0.5962
Li    Li1822        0.8818    0.1421    0.7246
Li    Li1823        0.0155    0.1595    0.7203
Li    Li1824        0.7725    0.1018    0.8880
Li    Li1825        0.9955    0.1897    0.8526
Li    Li1826        0.8785    0.1068    0.8400
Li    Li1827        0.8747    0.1900    0.8961
Li    Li1828        0.0168    0.1613    0.9656
Li    Li1829        0.8747    0.2617    0.0227
Li    Li1830        0.7687    0.2339    0.0307
Li    Li1831        0.0099    0.2852    0.3457
Li    Li1832        0.9931    0.2625    0.4733
Li    Li1833        0.7304    0.2091    0.6573
Li    Li1834        0.8865    0.2394    0.7243
Li    Li1835        0.7702    0.2234    0.9051
Li    Li1836        0.8689    0.2933    0.8892
Li    Li1837        0.8665    0.2633    0.7914
Li    Li1838        0.8707    0.2408    0.9663
Li    Li1839        0.0059    0.2656    0.9768
Li    Li1840        0.7536    0.3088    0.1597
Li    Li1841        0.0146    0.3898    0.0940
Li    Li1842        0.8611    0.3185    0.0938
Li    Li1843        0.7383    0.3317    0.0202
Li    Li1844        0.0002    0.3901    0.3397
Li    Li1845        0.8785    0.3131    0.3407
Li    Li1846        0.8588    0.3662    0.2799
Li    Li1847        0.8848    0.3308    0.4806
Li    Li1848        0.7464    0.3044    0.6477
Li    Li1849        0.9954    0.3858    0.5947
Li    Li1850        0.8616    0.3859    0.6610
Li    Li1851        0.8829    0.3225    0.7208
Li    Li1852        0.9988    0.3631    0.7251
Li    Li1853        0.7434    0.3186    0.8950
Li    Li1854        0.0093    0.3963    0.8452
Li    Li1855        0.8723    0.3076    0.8412
Li    Li1856        0.8699    0.3876    0.9066
Li    Li1857        0.8791    0.3619    0.7819
Li    Li1858        0.0070    0.4781    0.1043
Li    Li1859        0.8834    0.4455    0.0175
Li    Li1860        0.0047    0.4597    0.2215
Li    Li1861        0.7680    0.4122    0.4103
Li    Li1862        0.9986    0.4902    0.3351
Li    Li1863        0.8718    0.4313    0.4732
Li    Li1864        0.8740    0.4880    0.6591
Li    Li1865        0.8851    0.4329    0.7288
Li    Li1866        0.7590    0.4132    0.9060
Li    Li1867        0.9964    0.4848    0.8465
Li    Li1868        0.8721    0.4083    0.8503
Li    Li1869        0.8602    0.4812    0.8944
Li    Li1870        0.8584    0.4594    0.7824
Li    Li1871        0.8626    0.4495    0.9832
Li    Li1872        0.8526    0.5110    0.0879
Li    Li1873        0.9906    0.5867    0.3473
Li    Li1874        0.8899    0.5837    0.4042
Li    Li1875        0.8889    0.5526    0.2731
Li    Li1876        0.8480    0.5334    0.4684
Li    Li1877        0.8762    0.5861    0.6574
Li    Li1878        0.8769    0.5349    0.7242
Li    Li1879        0.8702    0.5111    0.8453
Li    Li1880        0.8638    0.5633    0.7822
Li    Li1881        0.0096    0.6895    0.3295
Li    Li1882        0.8768    0.6124    0.3389
Li    Li1883        0.0018    0.6587    0.4648
Li    Li1884        0.8856    0.6050    0.5875
Li    Li1885        0.0030    0.6636    0.7287
Li    Li1886        0.8709    0.6678    0.7702
Li    Li1887        0.7279    0.6378    0.7688
Li    Li1888        0.8589    0.7629    0.0326
Li    Li1889        0.9747    0.7585    0.4814
Li    Li1890        0.7464    0.7152    0.6542
Li    Li1891        0.0127    0.7861    0.5804
Li    Li1892        0.8771    0.7403    0.7118
Li    Li1893        0.7582    0.7029    0.8946
Li    Li1894        0.8712    0.7098    0.8484
Li    Li1895        0.8705    0.7886    0.9087
Li    Li1896        0.8858    0.7374    0.9655
Li    Li1897        0.0061    0.8829    0.3475
Li    Li1898        0.7681    0.8359    0.2837
Li    Li1899        0.7606    0.8120    0.6509
Li    Li1900        0.9908    0.8879    0.6022
Li    Li1901        0.8875    0.8847    0.6582
Li    Li1902        0.7394    0.8302    0.5266
Li    Li1903        0.0132    0.9889    0.3484
Li    Li1904        0.0009    0.9864    0.5968
Li    Li1905        0.8782    0.9122    0.5857
Li    Li1906        0.8679    0.9394    0.7209
Li    Li1907        0.7691    0.9314    0.5310
Li    Li1908        0.8713    0.9955    0.9146
Li    Li1909        0.8747    0.9620    0.7745
Li    Li1910        0.7323    0.9345    0.7855
