data_max_cluster
_audit_creation_method         'generated by data2config v5.5c'
 
_cell_length_a                  84.92680
_cell_length_b                  87.57400
_cell_length_c                  75.14280
_cell_angle_alpha               90.00000
_cell_angle_beta                96.73700
_cell_angle_gamma               90.00000
 
loop_
_symmetry_equiv_pos_as_xyz
'+x,+y,+z'
 
loop_
_atom_site_type_symbol
_atom_site_label
_atom_site_fract_x
_atom_site_fract_y
_atom_site_fract_z
Li    Li1        0.2200    0.4114    0.1658
Li    Li2        0.2069    0.4135    0.9173
Li    Li3        0.2074    0.5193    0.1655
Li    Li4        0.2135    0.6361    0.0327
Li    Li5        0.0414    0.6587    0.2186
Li    Li6        0.1627    0.6383    0.2149
Li    Li7        0.0339    0.6842    0.0861
Li    Li8        0.0848    0.7579    0.0346
Li    Li9        0.2106    0.7106    0.4073
Li    Li10        0.2870    0.2855    0.0826
Li    Li11        0.4634    0.3406    0.0407
Li    Li12        0.3385    0.3926    0.1607
Li    Li13        0.4166    0.3074    0.0926
Li    Li14        0.2772    0.3981    0.8356
Li    Li15        0.3371    0.4866    0.1685
Li    Li16        0.3386    0.4859    0.9097
Li    Li17        0.3401    0.5532    0.0405
Li    Li18        0.2855    0.5978    0.0869
Li    Li19        0.3429    0.6642    0.0447
Li    Li20        0.3330    0.6931    0.1577
Li    Li21        0.4665    0.6449    0.2862
Li    Li22        0.3356    0.6633    0.2850
Li    Li23        0.2896    0.7633    0.4621
Li    Li24        0.4173    0.7430    0.4648
Li    Li25        0.3406    0.7648    0.5355
Li    Li26        0.2836    0.7942    0.5848
Li    Li27        0.3349    0.8861    0.6634
Li    Li28        0.5878    0.2600    0.0374
Li    Li29        0.5385    0.2860    0.0854
Li    Li30        0.5858    0.2951    0.9105
Li    Li31        0.7111    0.3128    0.9050
Li    Li32        0.5409    0.4606    0.2168
Li    Li33        0.5885    0.5602    0.2933
Li    Li34        0.5363    0.5835    0.3381
Li    Li35        0.7056    0.6478    0.2917
Li    Li36        0.7895    0.7571    0.2164
Li    Li37        0.9202    0.7269    0.2197
Li    Li38        0.8362    0.7848    0.1618
Li    Li39        0.9680    0.7126    0.1589
Li    Li40        0.2105    0.2255    0.0756
Li    Li41        0.2115    0.4233    0.1926
Li    Li42        0.1699    0.5242    0.1854
Li    Li43        0.0397    0.6747    0.1767
Li    Li44        0.0765    0.6946    0.0691
Li    Li45        0.1864    0.6415    0.3155
Li    Li46        0.2127    0.6231    0.4520
Li    Li47        0.2069    0.6152    0.3138
Li    Li48        0.1792    0.6256    0.4421
Li    Li49        0.0427    0.7698    0.0571
Li    Li50        0.1695    0.7317    0.3035
Li    Li51        0.2061    0.7337    0.4412
Li    Li52        0.2046    0.7199    0.3206
Li    Li53        0.1672    0.8288    0.3120
Li    Li54        0.2055    0.8246    0.3237
Li    Li55        0.3261    0.2843    0.0639
Li    Li56        0.4275    0.3365    0.0601
Li    Li57        0.3039    0.3644    0.0584
Li    Li58        0.2916    0.3732    0.1788
Li    Li59        0.4582    0.3292    0.0658
Li    Li60        0.3333    0.3748    0.0675
Li    Li61        0.4221    0.4396    0.0646
Li    Li62        0.3343    0.4765    0.1981
Li    Li63        0.4541    0.4244    0.1947
Li    Li64        0.2924    0.4778    0.0595
Li    Li65        0.2926    0.4710    0.1742
Li    Li66        0.4492    0.4137    0.0641
Li    Li67        0.4156    0.4236    0.1786
Li    Li68        0.4422    0.4120    0.3115
Li    Li69        0.2917    0.4771    0.9293
Li    Li70        0.4576    0.5333    0.1829
Li    Li71        0.2988    0.5617    0.0579
Li    Li72        0.3293    0.5831    0.0637
Li    Li73        0.4259    0.5129    0.1901
Li    Li74        0.2993    0.6651    0.0571
Li    Li75        0.2963    0.6744    0.1825
Li    Li76        0.4208    0.6333    0.3094
Li    Li77        0.2935    0.6761    0.3041
Li    Li78        0.4560    0.6212    0.3176
Li    Li79        0.4167    0.7269    0.1808
Li    Li80        0.3349    0.7741    0.4543
Li    Li81        0.4262    0.7198    0.4377
Li    Li82        0.4227    0.7348    0.5623
Li    Li83        0.3008    0.7663    0.5611
Li    Li84        0.3316    0.8677    0.4430
Li    Li85        0.4521    0.8292    0.6922
Li    Li86        0.4189    0.8172    0.6849
Li    Li87        0.5620    0.2629    0.0597
Li    Li88        0.5796    0.2634    0.9401
Li    Li89        0.5478    0.2828    0.9337
Li    Li90        0.7059    0.3366    0.9390
Li    Li91        0.5823    0.4630    0.1922
Li    Li92        0.5517    0.4852    0.1854
Li    Li93        0.5834    0.5613    0.4420
Li    Li94        0.5403    0.5644    0.3037
Li    Li95        0.5529    0.5817    0.4377
Li    Li96        0.6859    0.6401    0.3194
Li    Li97        0.7087    0.6261    0.3230
Li    Li98        0.8032    0.7822    0.1924
Li    Li99        0.9249    0.7097    0.1834
Li    Li100        0.9310    0.8079    0.1886
Li    Li101        0.2468    0.2174    0.0702
Li    Li102        0.2384    0.3085    0.0723
Li    Li103        0.2395    0.4325    0.9432
Li    Li104        0.1157    0.6619    0.1971
Li    Li105        0.0074    0.6924    0.1819
Li    Li106        0.1318    0.6362    0.3037
Li    Li107        0.2462    0.6100    0.3230
Li    Li108        0.2429    0.6124    0.5673
Li    Li109        0.1434    0.6998    0.1871
Li    Li110        0.2412    0.7343    0.4417
Li    Li111        0.2497    0.7148    0.3226
Li    Li112        0.2437    0.8132    0.3208
Li    Li113        0.2582    0.2594    0.0550
Li    Li114        0.3691    0.2900    0.0681
Li    Li115        0.3805    0.3395    0.0551
Li    Li116        0.3662    0.3965    0.0704
Li    Li117        0.3802    0.4384    0.0536
Li    Li118        0.3707    0.4604    0.1954
Li    Li119        0.2565    0.4641    0.0553
Li    Li120        0.2575    0.4853    0.1824
Li    Li121        0.4901    0.4125    0.0712
Li    Li122        0.3798    0.4077    0.1805
Li    Li123        0.2516    0.4755    0.9250
Li    Li124        0.3805    0.5446    0.0552
Li    Li125        0.4930    0.5378    0.1964
Li    Li126        0.3720    0.5882    0.3183
Li    Li127        0.3731    0.6414    0.0429
Li    Li128        0.3648    0.6537    0.1911
Li    Li129        0.2608    0.6611    0.0586
Li    Li130        0.3800    0.6379    0.3065
Li    Li131        0.3550    0.6529    0.4339
Li    Li132        0.2565    0.6582    0.3067
Li    Li133        0.2544    0.6872    0.4300
Li    Li134        0.3733    0.7575    0.4457
Li    Li135        0.2599    0.7516    0.3044
Li    Li136        0.3822    0.7431    0.5581
Li    Li137        0.2587    0.7639    0.5542
Li    Li138        0.3699    0.7880    0.5713
Li    Li139        0.3719    0.8624    0.4461
Li    Li140        0.3828    0.8097    0.4299
Li    Li141        0.3708    0.8630    0.6978
Li    Li142        0.4904    0.8389    0.6924
Li    Li143        0.3794    0.8123    0.6782
Li    Li144        0.3876    0.9060    0.4389
Li    Li145        0.5055    0.2595    0.0504
Li    Li146        0.6240    0.2628    0.9416
Li    Li147        0.7431    0.3335    0.9447
Li    Li148        0.6216    0.4638    0.1995
Li    Li149        0.5110    0.4872    0.1811
Li    Li150        0.6320    0.6405    0.3023
Li    Li151        0.8614    0.7525    0.1901
Li    Li152        0.9986    0.7089    0.0705
Li    Li153        0.2110    0.4466    0.9812
Li    Li154        0.2119    0.4055    0.8619
Li    Li155        0.0812    0.6567    0.2314
Li    Li156        0.1672    0.6114    0.3952
Li    Li157        0.2090    0.6409    0.9806
Li    Li158        0.2132    0.7027    0.3526
Li    Li159        0.3327    0.3933    0.1050
Li    Li160        0.2912    0.4685    0.0221
Li    Li161        0.4625    0.4431    0.2347
Li    Li162        0.4578    0.4065    0.1073
Li    Li163        0.4166    0.4449    0.2696
Li    Li164        0.3339    0.6826    0.1036
Li    Li165        0.4607    0.8067    0.6081
Li    Li166        0.5383    0.2971    0.8951
Li    Li167        0.6646    0.3050    0.8935
Li    Li168        0.5855    0.5947    0.3562
Li    Li169        0.5402    0.7951    0.6412
Li    Li170        0.9633    0.7005    0.0996
Li    Li171        0.9614    0.8440    0.2309
Li    Li172        0.2437    0.2932    0.0919
Li    Li173        0.2420    0.4022    0.8435
Li    Li174        0.2491    0.4917    0.0933
Li    Li175        0.2395    0.4620    0.2188
Li    Li176        0.2470    0.5968    0.5908
Li    Li177        0.1167    0.6431    0.2196
Li    Li178        0.2385    0.6895    0.3365
Li    Li179        0.1290    0.6565    0.2830
Li    Li180        0.2443    0.6562    0.4687
Li    Li181        0.2438    0.6493    0.9644
Li    Li182        0.0089    0.7054    0.1535
Li    Li183        0.1161    0.7034    0.0943
Li    Li184        0.0150    0.7451    0.0327
Li    Li185        0.2344    0.7870    0.3412
Li    Li186        0.1366    0.7579    0.2814
Li    Li187        0.2449    0.7881    0.5915
Li    Li188        0.4929    0.2925    0.0834
Li    Li189        0.4918    0.3939    0.0943
Li    Li190        0.3714    0.3073    0.0941
Li    Li191        0.3843    0.3952    0.1590
Li    Li192        0.3837    0.3565    0.0380
Li    Li193        0.2544    0.4168    0.1588
Li    Li194        0.3780    0.4980    0.1560
Li    Li195        0.3818    0.4548    0.0353
Li    Li196        0.3618    0.4421    0.2131
Li    Li197        0.2530    0.4478    0.0306
Li    Li198        0.2492    0.5033    0.1583
Li    Li199        0.3753    0.5033    0.0953
Li    Li200        0.4965    0.5538    0.2158
Li    Li201        0.4965    0.6018    0.3447
Li    Li202        0.3855    0.5950    0.4042
Li    Li203        0.3834    0.6940    0.1596
Li    Li204        0.3904    0.6579    0.0316
Li    Li205        0.3679    0.6447    0.2193
Li    Li206        0.2587    0.6464    0.0317
Li    Li207        0.3730    0.6051    0.3462
Li    Li208        0.3815    0.6905    0.4115
Li    Li209        0.3831    0.6556    0.2814
Li    Li210        0.3699    0.6480    0.4576
Li    Li211        0.2596    0.6448    0.2856
Li    Li212        0.2496    0.6423    0.5294
Li    Li213        0.3723    0.7407    0.2145
Li    Li214        0.2480    0.7049    0.4054
Li    Li215        0.3788    0.7952    0.4087
Li    Li216        0.3704    0.7434    0.4702
Li    Li217        0.3781    0.7966    0.6587
Li    Li218        0.3801    0.7535    0.5299
Li    Li219        0.2589    0.7421    0.5321
Li    Li220        0.3710    0.8453    0.4684
Li    Li221        0.3686    0.8048    0.5938
Li    Li222        0.3852    0.8623    0.5310
Li    Li223        0.3693    0.8456    0.7209
Li    Li224        0.4921    0.8552    0.7184
Li    Li225        0.6345    0.2541    0.0288
Li    Li226        0.6302    0.2980    0.9094
Li    Li227        0.6255    0.2450    0.9679
Li    Li228        0.5022    0.3043    0.9077
Li    Li229        0.6166    0.3068    0.8452
Li    Li230        0.7399    0.3516    0.9663
Li    Li231        0.7500    0.5919    0.3455
Li    Li232        0.6273    0.5939    0.4086
Li    Li233        0.6316    0.5537    0.2804
Li    Li234        0.5012    0.5438    0.2799
Li    Li235        0.5104    0.6087    0.4097
Li    Li236        0.6197    0.6034    0.3414
Li    Li237        0.5029    0.8018    0.6507
Li    Li238        0.0013    0.6986    0.0958
Li    Li239        0.9958    0.6550    0.2159
Li    Li240        0.8773    0.7961    0.1599
Li    Li241        0.8724    0.7438    0.2184
