data_max_cluster
_audit_creation_method         'generated by data2config v5.5c'
 
_cell_length_a                  84.92680
_cell_length_b                  87.57400
_cell_length_c                  75.14280
_cell_angle_alpha               90.00000
_cell_angle_beta                96.73700
_cell_angle_gamma               90.00000
 
loop_
_symmetry_equiv_pos_as_xyz
'+x,+y,+z'
 
loop_
_atom_site_type_symbol
_atom_site_label
_atom_site_fract_x
_atom_site_fract_y
_atom_site_fract_z
Li    Li1        0.0907    0.0842    0.1643
Li    Li2        0.2136    0.0082    0.1636
Li    Li3        0.2086    0.0376    0.2714
Li    Li4        0.0287    0.0851    0.3335
Li    Li5        0.2103    0.0153    0.4065
Li    Li6        0.0853    0.1668    0.0450
Li    Li7        0.1511    0.1147    0.0858
Li    Li8        0.2189    0.1370    0.2808
Li    Li9        0.1626    0.1323    0.4649
Li    Li10        0.1599    0.1322    0.7129
Li    Li11        0.0877    0.1586    0.5475
Li    Li12        0.0858    0.1673    0.7745
Li    Li13        0.1580    0.2440    0.4602
Li    Li14        0.1027    0.2903    0.4129
Li    Li15        0.2110    0.2172    0.4139
Li    Li16        0.0424    0.2619    0.6971
Li    Li17        0.1614    0.2367    0.7099
Li    Li18        0.0817    0.2520    0.5495
Li    Li19        0.1546    0.2164    0.5917
Li    Li20        0.0310    0.2794    0.5802
Li    Li21        0.2169    0.2069    0.6691
Li    Li22        0.2098    0.3393    0.3017
Li    Li23        0.0303    0.3646    0.4542
Li    Li24        0.0977    0.3861    0.4176
Li    Li25        0.1651    0.3052    0.3372
Li    Li26        0.0307    0.3826    0.3326
Li    Li27        0.0301    0.3668    0.9672
Li    Li28        0.0894    0.3874    0.9127
Li    Li29        0.2075    0.3249    0.9056
Li    Li30        0.0906    0.4827    0.1704
Li    Li31        0.1504    0.4131    0.0869
Li    Li32        0.2099    0.4095    0.1702
Li    Li33        0.0139    0.4648    0.4627
Li    Li34        0.0335    0.4852    0.3334
Li    Li35        0.1594    0.4435    0.9593
Li    Li36        0.0851    0.4687    0.8918
Li    Li37        0.2069    0.4125    0.9155
Li    Li38        0.1695    0.5170    0.4813
Li    Li39        0.0917    0.5930    0.4186
Li    Li40        0.1015    0.5829    0.6500
Li    Li41        0.1550    0.5137    0.5944
Li    Li42        0.0416    0.5872    0.5889
Li    Li43        0.0381    0.5659    0.9590
Li    Li44        0.1587    0.5103    0.8386
Li    Li45        0.2157    0.6400    0.0436
Li    Li46        0.0285    0.6600    0.2215
Li    Li47        0.1749    0.6333    0.2128
Li    Li48        0.0225    0.6944    0.0951
Li    Li49        0.2192    0.6300    0.2692
Li    Li50        0.1609    0.6046    0.5757
Li    Li51        0.2161    0.6075    0.6737
Li    Li52        0.2273    0.6324    0.7761
Li    Li53        0.0789    0.6626    0.7953
Li    Li54        0.1645    0.6144    0.8352
Li    Li55        0.1560    0.7335    0.4689
Li    Li56        0.0849    0.7863    0.4191
Li    Li57        0.2160    0.7092    0.3975
Li    Li58        0.2170    0.7396    0.5462
Li    Li59        0.1693    0.7237    0.6033
Li    Li60        0.2146    0.7199    0.6489
Li    Li61        0.2098    0.8368    0.0462
Li    Li62        0.1593    0.8111    0.0838
Li    Li63        0.1646    0.8364    0.4605
Li    Li64        0.1657    0.8328    0.9598
Li    Li65        0.1634    0.9316    0.2190
Li    Li66        0.2060    0.9378    0.3079
Li    Li67        0.0943    0.9838    0.4137
Li    Li68        0.1649    0.9093    0.3454
Li    Li69        0.4638    0.0474    0.0455
Li    Li70        0.4720    0.0325    0.2910
Li    Li71        0.3372    0.0607    0.2795
Li    Li72        0.4224    0.0082    0.3384
Li    Li73        0.2853    0.1592    0.2055
Li    Li74        0.4213    0.1379    0.2147
Li    Li75        0.2857    0.1911    0.3394
Li    Li76        0.2719    0.1563    0.7156
Li    Li77        0.3520    0.1809    0.6482
Li    Li78        0.2812    0.1644    0.9580
Li    Li79        0.3251    0.1689    0.7839
Li    Li80        0.4226    0.1166    0.8510
Li    Li81        0.2927    0.1891    0.8304
Li    Li82        0.4574    0.1170    0.9176
Li    Li83        0.4142    0.2367    0.2072
Li    Li84        0.4566    0.2068    0.1742
Li    Li85        0.2918    0.2621    0.4568
Li    Li86        0.3983    0.2377    0.4700
Li    Li87        0.4066    0.2133    0.3437
Li    Li88        0.3354    0.2608    0.5311
Li    Li89        0.4761    0.2376    0.7808
Li    Li90        0.2824    0.2817    0.8582
Li    Li91        0.4716    0.2139    0.9101
Li    Li92        0.2840    0.3548    0.2073
Li    Li93        0.4060    0.3485    0.2148
Li    Li94        0.3366    0.3854    0.1642
Li    Li95        0.4159    0.3146    0.0745
Li    Li96        0.2895    0.3823    0.0928
Li    Li97        0.4580    0.3131    0.1668
Li    Li98        0.2830    0.3639    0.4585
Li    Li99        0.2831    0.3488    0.7053
Li    Li100        0.3262    0.3668    0.5374
Li    Li101        0.3433    0.3902    0.6690
Li    Li102        0.4102    0.3097    0.5938
Li    Li103        0.2849    0.3968    0.8323
Li    Li104        0.4072    0.4409    0.2065
Li    Li105        0.3345    0.4695    0.0397
Li    Li106        0.3349    0.4841    0.1771
Li    Li107        0.2910    0.4612    0.4516
Li    Li108        0.3375    0.4700    0.2810
Li    Li109        0.4157    0.4143    0.3506
Li    Li110        0.4688    0.4423    0.5480
Li    Li111        0.3548    0.4565    0.7847
Li    Li112        0.3336    0.4918    0.9223
Li    Li113        0.4609    0.5393    0.0409
Li    Li114        0.2813    0.5817    0.0818
Li    Li115        0.4167    0.5032    0.3495
Li    Li116        0.2878    0.5953    0.3372
Li    Li117        0.4175    0.5333    0.7140
Li    Li118        0.2932    0.5425    0.9431
Li    Li119        0.4136    0.5406    0.9553
Li    Li120        0.4203    0.5057    0.8342
Li    Li121        0.3419    0.6593    0.0320
Li    Li122        0.3358    0.6872    0.1601
Li    Li123        0.4121    0.6073    0.0833
Li    Li124        0.3407    0.6622    0.2856
Li    Li125        0.4139    0.6073    0.3317
Li    Li126        0.4583    0.6361    0.5318
Li    Li127        0.4124    0.6407    0.7079
Li    Li128        0.3555    0.6921    0.6654
Li    Li129        0.4063    0.6370    0.9710
Li    Li130        0.3401    0.6587    0.7938
Li    Li131        0.4652    0.6116    0.9212
Li    Li132        0.4616    0.7347    0.0431
Li    Li133        0.2884    0.7648    0.4608
Li    Li134        0.4187    0.7361    0.6963
Li    Li135        0.3331    0.7647    0.5457
Li    Li136        0.2933    0.7974    0.5809
Li    Li137        0.3315    0.7564    0.7942
Li    Li138        0.3295    0.7822    0.9084
Li    Li139        0.3394    0.8637    0.0338
Li    Li140        0.2926    0.9756    0.2223
Li    Li141        0.4053    0.9393    0.2181
Li    Li142        0.3416    0.9791    0.1512
Li    Li143        0.2856    0.9590    0.4546
Li    Li144        0.3351    0.9854    0.4111
Li    Li145        0.4571    0.9123    0.4135
Li    Li146        0.4588    0.9407    0.5328
Li    Li147        0.4064    0.9151    0.5812
Li    Li148        0.6481    0.0350    0.2205
Li    Li149        0.5966    0.0640    0.0399
Li    Li150        0.7216    0.0388    0.7956
Li    Li151        0.5336    0.0591    0.9537
Li    Li152        0.7180    0.0112    0.9178
Li    Li153        0.7207    0.1356    0.0311
Li    Li154        0.5891    0.1795    0.1537
Li    Li155        0.5347    0.1587    0.9596
Li    Li156        0.5842    0.2613    0.0473
Li    Li157        0.5334    0.2924    0.0822
Li    Li158        0.6610    0.2362    0.4500
Li    Li159        0.5878    0.2595    0.2938
Li    Li160        0.5851    0.2845    0.4053
Li    Li161        0.7151    0.2121    0.4065
Li    Li162        0.5397    0.2604    0.7163
Li    Li163        0.5895    0.2891    0.6600
Li    Li164        0.5960    0.2651    0.7830
Li    Li165        0.6643    0.2117    0.8330
Li    Li166        0.6634    0.3376    0.2072
Li    Li167        0.6066    0.3874    0.1552
Li    Li168        0.6634    0.3087    0.0828
Li    Li169        0.5467    0.3549    0.7136
Li    Li170        0.5180    0.3686    0.9721
Li    Li171        0.5971    0.3532    0.7918
Li    Li172        0.5385    0.3861    0.8529
Li    Li173        0.5896    0.4536    0.5462
Li    Li174        0.6019    0.4792    0.6552
Li    Li175        0.5822    0.4666    0.8023
Li    Li176        0.7077    0.5367    0.0484
Li    Li177        0.5276    0.5976    0.0980
Li    Li178        0.5790    0.5602    0.2883
Li    Li179        0.6715    0.5057    0.3281
Li    Li180        0.5421    0.5881    0.3317
Li    Li181        0.7157    0.5136    0.4074
Li    Li182        0.7130    0.5250    0.5161
Li    Li183        0.6559    0.5093    0.5861
Li    Li184        0.7023    0.5383    0.7807
Li    Li185        0.5830    0.5804    0.9047
Li    Li186        0.6616    0.5155    0.8451
Li    Li187        0.5291    0.6884    0.0807
Li    Li188        0.6586    0.6322    0.4674
Li    Li189        0.5965    0.6553    0.2985
Li    Li190        0.5931    0.6583    0.5357
Li    Li191        0.5380    0.6865    0.6025
Li    Li192        0.7148    0.6129    0.6612
Li    Li193        0.7296    0.6390    0.7937
Li    Li194        0.5916    0.6657    0.7875
Li    Li195        0.6614    0.6091    0.8332
Li    Li196        0.6644    0.7419    0.2095
Li    Li197        0.6725    0.7136    0.0753
Li    Li198        0.5295    0.7659    0.4739
Li    Li199        0.7109    0.7036    0.4151
Li    Li200        0.6675    0.7385    0.7163
Li    Li201        0.6581    0.7112    0.5890
Li    Li202        0.5362    0.8594    0.2025
Li    Li203        0.5888    0.8580    0.0489
Li    Li204        0.6650    0.8019    0.0812
Li    Li205        0.5401    0.8958    0.0852
Li    Li206        0.7198    0.8313    0.2930
Li    Li207        0.6605    0.8425    0.9604
Li    Li208        0.5963    0.9837    0.1702
Li    Li209        0.5212    0.9843    0.3539
Li    Li210        0.9620    0.0403    0.5457
Li    Li211        0.7827    0.0855    0.8296
Li    Li212        0.8427    0.1664    0.0325
Li    Li213        0.9176    0.1170    0.0718
Li    Li214        0.9655    0.1433    0.2864
Li    Li215        0.8953    0.1479    0.4827
Li    Li216        0.8348    0.1836    0.4089
Li    Li217        0.7813    0.1843    0.5879
Li    Li218        0.9121    0.1419    0.9614
Li    Li219        0.8314    0.1921    0.9198
Li    Li220        0.7801    0.1855    0.8349
Li    Li221        0.9727    0.2323    0.0394
Li    Li222        0.9109    0.2400    0.2220
Li    Li223        0.9094    0.2097    0.0896
Li    Li224        0.7887    0.2611    0.4596
Li    Li225        0.8316    0.2877    0.4060
Li    Li226        0.9110    0.2185    0.3351
Li    Li227        0.9114    0.2272    0.7302
Li    Li228        0.9171    0.2049    0.5917
Li    Li229        0.7935    0.2869    0.5848
Li    Li230        0.9684    0.2405    0.7936
Li    Li231        0.9076    0.2102    0.8267
Li    Li232        0.7902    0.2873    0.8346
Li    Li233        0.9791    0.3281    0.0253
Li    Li234        0.7830    0.3594    0.2049
Li    Li235        0.7896    0.3825    0.0896
Li    Li236        0.9621    0.3346    0.2983
Li    Li237        0.9186    0.3420    0.4583
Li    Li238        0.9104    0.3093    0.5712
Li    Li239        0.9630    0.4201    0.0143
Li    Li240        0.8259    0.4714    0.0259
Li    Li241        0.7991    0.4834    0.0942
Li    Li242        0.9234    0.4300    0.4607
Li    Li243        0.8382    0.4692    0.2942
Li    Li244        0.9186    0.4091    0.3296
Li    Li245        0.9130    0.4104    0.5796
Li    Li246        0.9626    0.4134    0.6822
Li    Li247        0.9586    0.4324    0.7757
Li    Li248        0.9571    0.4137    0.9110
Li    Li249        0.8455    0.5881    0.4141
Li    Li250        0.9631    0.5078    0.4175
Li    Li251        0.9593    0.5364    0.5405
Li    Li252        0.8294    0.5887    0.6645
Li    Li253        0.9530    0.5151    0.6630
Li    Li254        0.9109    0.6149    0.3373
Li    Li255        0.9654    0.6129    0.4075
Li    Li256        0.8268    0.6662    0.5129
Li    Li257        0.7846    0.6891    0.5792
Li    Li258        0.9124    0.6381    0.9557
Li    Li259        0.8314    0.6645    0.7789
Li    Li260        0.7844    0.6865    0.8361
Li    Li261        0.7919    0.7624    0.2059
Li    Li262        0.8391    0.7888    0.1636
Li    Li263        0.9598    0.7129    0.1663
Li    Li264        0.8467    0.7646    0.2841
Li    Li265        0.9595    0.7274    0.5167
Li    Li266        0.9589    0.7120    0.6597
Li    Li267        0.7864    0.7548    0.9589
Li    Li268        0.9125    0.7395    0.9643
Li    Li269        0.8346    0.7636    0.8037
Li    Li270        0.8361    0.7895    0.9196
Li    Li271        0.9060    0.7173    0.8438
Li    Li272        0.7907    0.8616    0.2054
Li    Li273        0.9135    0.8360    0.2176
Li    Li274        0.8381    0.8700    0.0445
Li    Li275        0.9129    0.8095    0.0762
Li    Li276        0.9743    0.8050    0.1675
Li    Li277        0.9111    0.8161    0.3406
Li    Li278        0.2064    0.0414    0.1741
Li    Li279        0.0463    0.0877    0.2041
Li    Li280        0.1710    0.0374    0.3128
Li    Li281        0.0799    0.0613    0.4359
Li    Li282        0.2244    0.0473    0.4363
Li    Li283        0.0400    0.0615    0.3218
Li    Li284        0.2026    0.0351    0.2975
Li    Li285        0.0854    0.0873    0.3029
Li    Li286        0.1614    0.0110    0.4423
Li    Li287        0.0706    0.0752    0.5552
Li    Li288        0.2044    0.1400    0.1759
Li    Li289        0.0455    0.1658    0.0730
Li    Li290        0.1978    0.1115    0.0521
Li    Li291        0.0791    0.1922    0.0467
Li    Li292        0.1735    0.1107    0.1972
Li    Li293        0.1675    0.1322    0.3267
Li    Li294        0.1998    0.1369    0.4235
Li    Li295        0.0447    0.1669    0.3178
Li    Li296        0.0471    0.1808    0.4565
Li    Li297        0.2062    0.1076    0.2991
Li    Li298        0.0874    0.1951    0.3038
Li    Li299        0.1696    0.1126    0.4517
Li    Li300        0.1689    0.1440    0.5623
Li    Li301        0.2158    0.1343    0.7074
Li    Li302        0.0446    0.1643    0.5732
Li    Li303        0.0895    0.2000    0.5611
Li    Li304        0.1732    0.1136    0.7025
Li    Li305        0.1691    0.1384    0.8213
Li    Li306        0.0833    0.1629    0.9257
Li    Li307        0.2039    0.1373    0.9298
Li    Li308        0.0513    0.1591    0.8233
Li    Li309        0.0493    0.1913    0.9398
Li    Li310        0.2027    0.1233    0.8074
Li    Li311        0.1683    0.1116    0.9477
Li    Li312        0.0562    0.2771    0.2029
Li    Li313        0.1958    0.2203    0.0558
Li    Li314        0.1438    0.2427    0.3203
Li    Li315        0.0883    0.2636    0.4317
Li    Li316        0.2166    0.2502    0.4306
Li    Li317        0.0500    0.2840    0.4542
Li    Li318        0.0705    0.2838    0.3042
Li    Li319        0.1625    0.2079    0.4370
Li    Li320        0.1709    0.2406    0.5704
Li    Li321        0.0622    0.2550    0.6810
Li    Li322        0.2042    0.2372    0.6817
Li    Li323        0.0452    0.2575    0.5761
Li    Li324        0.0482    0.2955    0.7011
Li    Li325        0.1964    0.2114    0.5536
Li    Li326        0.1672    0.2154    0.6968
Li    Li327        0.1729    0.2357    0.8194
Li    Li328        0.1713    0.2072    0.9449
Li    Li329        0.1718    0.3372    0.0740
Li    Li330        0.0837    0.3781    0.1644
Li    Li331        0.2052    0.3351    0.1841
Li    Li332        0.2153    0.3281    0.0510
Li    Li333        0.0834    0.3832    0.0431
Li    Li334        0.1624    0.3230    0.1902
Li    Li335        0.1724    0.3355    0.3192
Li    Li336        0.0934    0.3628    0.4322
Li    Li337        0.2191    0.3417    0.4333
Li    Li338        0.0397    0.3611    0.3319
Li    Li339        0.0815    0.3835    0.3086
Li    Li340        0.1804    0.3145    0.4411
Li    Li341        0.1986    0.3146    0.5450
Li    Li342        0.0763    0.3617    0.9296
Li    Li343        0.2062    0.3386    0.9323
Li    Li344        0.0447    0.3622    0.8223
Li    Li345        0.0423    0.3832    0.9450
Li    Li346        0.1666    0.4424    0.0742
Li    Li347        0.0713    0.4686    0.1746
Li    Li348        0.1917    0.4444    0.1765
Li    Li349        0.2064    0.4129    0.0527
Li    Li350        0.0661    0.4782    0.4324
Li    Li351        0.2043    0.4330    0.4221
Li    Li352        0.0451    0.4666    0.3225
Li    Li353        0.0445    0.4870    0.4571
Li    Li354        0.2040    0.4096    0.2988
Li    Li355        0.0757    0.4740    0.3118
Li    Li356        0.1741    0.4049    0.4466
Li    Li357        0.1724    0.4243    0.5843
Li    Li358        0.2027    0.4384    0.6778
Li    Li359        0.0511    0.4562    0.5682
Li    Li360        0.2056    0.4118    0.5540
Li    Li361        0.1660    0.4078    0.6878
Li    Li362        0.2065    0.4398    0.9240
Li    Li363        0.0390    0.4646    0.8182
Li    Li364        0.0304    0.4906    0.9295
Li    Li365        0.1732    0.4144    0.9495
Li    Li366        0.0435    0.5867    0.1964
Li    Li367        0.1824    0.5266    0.3211
Li    Li368        0.0894    0.5556    0.4308
Li    Li369        0.2119    0.5423    0.4295
Li    Li370        0.0423    0.5599    0.3161
Li    Li371        0.0411    0.5845    0.4429
Li    Li372        0.0757    0.5884    0.2985
Li    Li373        0.1729    0.5174    0.4503
Li    Li374        0.1680    0.5332    0.5725
Li    Li375        0.0352    0.5960    0.6943
Li    Li376        0.2061    0.5079    0.5687
Li    Li377        0.0872    0.5810    0.5572
Li    Li378        0.1662    0.5387    0.8284
Li    Li379        0.0495    0.5666    0.8211
Li    Li380        0.0543    0.5884    0.9413
Li    Li381        0.2144    0.5083    0.8044
Li    Li382        0.0721    0.5830    0.8058
Li    Li383        0.1743    0.6352    0.0711
Li    Li384        0.0788    0.6615    0.1846
Li    Li385        0.0348    0.6913    0.1988
Li    Li386        0.1977    0.6168    0.0516
Li    Li387        0.0770    0.6850    0.0494
Li    Li388        0.1699    0.6279    0.3234
Li    Li389        0.2072    0.6150    0.4195
Li    Li390        0.0455    0.6886    0.4488
Li    Li391        0.2028    0.6122    0.3030
Li    Li392        0.1692    0.6143    0.4408
Li    Li393        0.1619    0.6337    0.5687
Li    Li394        0.0754    0.6686    0.6795
Li    Li395        0.0473    0.6867    0.6951
Li    Li396        0.2057    0.6120    0.5550
Li    Li397        0.1714    0.6103    0.7018
Li    Li398        0.1643    0.6364    0.8162
Li    Li399        0.2069    0.6371    0.9342
Li    Li400        0.0439    0.6738    0.8271
Li    Li401        0.0425    0.6839    0.9478
Li    Li402        0.1952    0.6279    0.8182
Li    Li403        0.0766    0.6862    0.8005
Li    Li404        0.1639    0.6160    0.9452
Li    Li405        0.0447    0.7834    0.0793
Li    Li406        0.1988    0.7358    0.4307
Li    Li407        0.0459    0.7822    0.4455
Li    Li408        0.2050    0.7088    0.3026
Li    Li409        0.1594    0.7070    0.4480
Li    Li410        0.1720    0.7364    0.5780
Li    Li411        0.0732    0.7641    0.6805
Li    Li412        0.0417    0.7903    0.6954
Li    Li413        0.2046    0.7104    0.5474
Li    Li414        0.1726    0.7152    0.6826
Li    Li415        0.2123    0.7069    0.7972
Li    Li416        0.1693    0.8393    0.0685
Li    Li417        0.0662    0.8672    0.0589
Li    Li418        0.2072    0.8060    0.0443
Li    Li419        0.1749    0.8390    0.3260
Li    Li420        0.2013    0.8366    0.4412
Li    Li421        0.2027    0.8211    0.3060
Li    Li422        0.1695    0.8130    0.6992
Li    Li423        0.2133    0.8086    0.8031
Li    Li424        0.2018    0.9353    0.1740
Li    Li425        0.1757    0.9400    0.3240
Li    Li426        0.0831    0.9633    0.4303
Li    Li427        0.2064    0.9390    0.4283
Li    Li428        0.0394    0.9818    0.4440
Li    Li429        0.1575    0.9110    0.4208
Li    Li430        0.4155    0.0392    0.0740
Li    Li431        0.4493    0.0353    0.1763
Li    Li432        0.4505    0.0256    0.0608
Li    Li433        0.4197    0.0406    0.3152
Li    Li434        0.4600    0.0380    0.4240
Li    Li435        0.2974    0.0682    0.3212
Li    Li436        0.4583    0.0131    0.3069
Li    Li437        0.4226    0.0119    0.4407
Li    Li438        0.3191    0.1603    0.1834
Li    Li439        0.4571    0.1387    0.1754
Li    Li440        0.2965    0.1911    0.2049
Li    Li441        0.4203    0.1122    0.1996
Li    Li442        0.4631    0.1381    0.4284
Li    Li443        0.2936    0.1540    0.3171
Li    Li444        0.3300    0.1898    0.3068
Li    Li445        0.4213    0.1192    0.4583
Li    Li446        0.4161    0.1404    0.5593
Li    Li447        0.3261    0.1655    0.6710
Li    Li448        0.2939    0.1896    0.7016
Li    Li449        0.3240    0.1938    0.5484
Li    Li450        0.4272    0.1356    0.8266
Li    Li451        0.3292    0.1689    0.9319
Li    Li452        0.4516    0.1397    0.9215
Li    Li453        0.2884    0.1621    0.8195
Li    Li454        0.2927    0.1889    0.9476
Li    Li455        0.4554    0.1146    0.8021
Li    Li456        0.3215    0.1920    0.8005
Li    Li457        0.4266    0.1128    0.9486
Li    Li458        0.4556    0.2428    0.1905
Li    Li459        0.2999    0.2586    0.0703
Li    Li460        0.4598    0.2095    0.0470
Li    Li461        0.3280    0.2891    0.0523
Li    Li462        0.4080    0.2438    0.3167
Li    Li463        0.3270    0.2550    0.4309
Li    Li464        0.4528    0.2421    0.4259
Li    Li465        0.4529    0.2129    0.3028
Li    Li466        0.4127    0.2134    0.4439
Li    Li467        0.4534    0.2426    0.6837
Li    Li468        0.2805    0.2636    0.5671
Li    Li469        0.4198    0.2077    0.6897
Li    Li470        0.3336    0.2644    0.9270
Li    Li471        0.4522    0.2406    0.9274
Li    Li472        0.2839    0.2675    0.7999
Li    Li473        0.2938    0.2812    0.9500
Li    Li474        0.3312    0.2931    0.8038
Li    Li475        0.4202    0.2072    0.9440
Li    Li476        0.4186    0.3374    0.0685
Li    Li477        0.3328    0.3573    0.1793
Li    Li478        0.4630    0.3388    0.1797
Li    Li479        0.2942    0.3682    0.0716
Li    Li480        0.4451    0.3098    0.0606
Li    Li481        0.3315    0.3890    0.0578
Li    Li482        0.4167    0.3147    0.1965
Li    Li483        0.3308    0.3608    0.4365
Li    Li484        0.2966    0.3864    0.4523
Li    Li485        0.4542    0.3141    0.3018
Li    Li486        0.4211    0.3394    0.5651
Li    Li487        0.4583    0.3370    0.6774
Li    Li488        0.2954    0.3608    0.5747
Li    Li489        0.2958    0.3866    0.7014
Li    Li490        0.4553    0.3187    0.5438
Li    Li491        0.4157    0.3159    0.6961
Li    Li492        0.4085    0.3492    0.8094
Li    Li493        0.2917    0.3718    0.8221
Li    Li494        0.4537    0.3138    0.8073
Li    Li495        0.3310    0.3879    0.7942
Li    Li496        0.3278    0.4622    0.1805
Li    Li497        0.4450    0.4367    0.1802
Li    Li498        0.3007    0.4749    0.0669
Li    Li499        0.3012    0.4869    0.1917
Li    Li500        0.4198    0.4088    0.1916
Li    Li501        0.4626    0.4374    0.4299
Li    Li502        0.2983    0.4671    0.3229
Li    Li503        0.4552    0.4148    0.3071
Li    Li504        0.3300    0.4895    0.3107
Li    Li505        0.4215    0.4119    0.4512
Li    Li506        0.3404    0.4638    0.6872
Li    Li507        0.3028    0.4879    0.6938
Li    Li508        0.4523    0.4145    0.5496
Li    Li509        0.4003    0.4176    0.6865
Li    Li510        0.4232    0.4388    0.8220
Li    Li511        0.2910    0.4627    0.8209
Li    Li512        0.2948    0.4892    0.9493
Li    Li513        0.4534    0.5339    0.1821
Li    Li514        0.2998    0.5611    0.0644
Li    Li515        0.4488    0.5114    0.0580
Li    Li516        0.3214    0.5880    0.0466
Li    Li517        0.4199    0.5189    0.2013
Li    Li518        0.4261    0.5353    0.3239
Li    Li519        0.3274    0.5582    0.4379
Li    Li520        0.2942    0.5619    0.3273
Li    Li521        0.4576    0.5098    0.3111
Li    Li522        0.4193    0.5098    0.4471
Li    Li523        0.4394    0.5436    0.6770
Li    Li524        0.2981    0.5646    0.5720
Li    Li525        0.2813    0.5930    0.6943
Li    Li526        0.3364    0.5914    0.5566
Li    Li527        0.4230    0.5124    0.7009
Li    Li528        0.4154    0.5439    0.8132
Li    Li529        0.3244    0.5595    0.9292
Li    Li530        0.4612    0.5159    0.9201
Li    Li531        0.2996    0.5815    0.9465
Li    Li532        0.4137    0.5123    0.9433
Li    Li533        0.3458    0.6519    0.1881
Li    Li534        0.3131    0.6600    0.0737
Li    Li535        0.2984    0.6857    0.1959
Li    Li536        0.4534    0.6196    0.0467
Li    Li537        0.3298    0.6930    0.0604
Li    Li538        0.4167    0.6486    0.3195
Li    Li539        0.3362    0.6584    0.4277
Li    Li540        0.2875    0.6661    0.3192
Li    Li541        0.3007    0.6847    0.4491
Li    Li542        0.4618    0.6062    0.3067
Li    Li543        0.4185    0.6132    0.4517
Li    Li544        0.4189    0.6430    0.5717
Li    Li545        0.3313    0.6604    0.6866
Li    Li546        0.4620    0.6476    0.6837
Li    Li547        0.2813    0.7031    0.6901
Li    Li548        0.4600    0.6048    0.5609
Li    Li549        0.3312    0.6846    0.5560
Li    Li550        0.4263    0.6374    0.8203
Li    Li551        0.4579    0.6388    0.9298
Li    Li552        0.2967    0.6745    0.8205
Li    Li553        0.4552    0.6130    0.8066
Li    Li554        0.4152    0.6113    0.9422
Li    Li555        0.4227    0.7374    0.0688
Li    Li556        0.4549    0.7069    0.0547
Li    Li557        0.3241    0.7870    0.0528
Li    Li558        0.3293    0.7621    0.4221
Li    Li559        0.4536    0.7477    0.4306
Li    Li560        0.4217    0.7077    0.4390
Li    Li561        0.4213    0.7302    0.5702
Li    Li562        0.4562    0.7364    0.6740
Li    Li563        0.2977    0.7606    0.5762
Li    Li564        0.4503    0.7184    0.5652
Li    Li565        0.3298    0.7908    0.5527
Li    Li566        0.3263    0.7596    0.9259
Li    Li567        0.2930    0.7676    0.8197
Li    Li568        0.2996    0.7853    0.9443
Li    Li569        0.4614    0.7169    0.8079
Li    Li570        0.3272    0.7866    0.8223
Li    Li571        0.4214    0.8408    0.0610
Li    Li572        0.2934    0.8622    0.0736
Li    Li573        0.4519    0.8135    0.0500
Li    Li574        0.3345    0.8903    0.0572
Li    Li575        0.3268    0.8646    0.4313
Li    Li576        0.4674    0.8411    0.4357
Li    Li577        0.2822    0.8558    0.3222
Li    Li578        0.2973    0.8940    0.4343
Li    Li579        0.4164    0.8199    0.4528
Li    Li580        0.4587    0.8151    0.5519
Li    Li581        0.3253    0.8899    0.5576
Li    Li582        0.4227    0.9259    0.0708
Li    Li583        0.3259    0.9654    0.1742
Li    Li584        0.4553    0.9364    0.1710
Li    Li585        0.2957    0.9869    0.1890
Li    Li586        0.4157    0.9027    0.2001
Li    Li587        0.4172    0.9389    0.3212
Li    Li588        0.3506    0.9556    0.4412
Li    Li589        0.2926    0.9660    0.3248
Li    Li590        0.2969    0.9885    0.4414
Li    Li591        0.4478    0.9193    0.3124
Li    Li592        0.3290    0.9890    0.3054
Li    Li593        0.4280    0.9128    0.4457
Li    Li594        0.4220    0.9391    0.5652
Li    Li595        0.4540    0.9147    0.5446
Li    Li596        0.5843    0.0641    0.1747
Li    Li597        0.5343    0.0663    0.0668
Li    Li598        0.5478    0.0908    0.1926
Li    Li599        0.5838    0.0910    0.0506
Li    Li600        0.6691    0.0427    0.3137
Li    Li601        0.5390    0.0623    0.3213
Li    Li602        0.7060    0.0101    0.3059
Li    Li603        0.5818    0.0907    0.3037
Li    Li604        0.5816    0.0680    0.9193
Li    Li605        0.6951    0.0405    0.9375
Li    Li606        0.5733    0.0883    0.8088
Li    Li607        0.6688    0.0074    0.9411
Li    Li608        0.6625    0.1347    0.0623
Li    Li609        0.5753    0.1572    0.1757
Li    Li610        0.5385    0.1544    0.0734
Li    Li611        0.5463    0.1777    0.1900
Li    Li612        0.7135    0.1089    0.0677
Li    Li613        0.5700    0.1696    0.0529
Li    Li614        0.7057    0.1426    0.9296
Li    Li615        0.5387    0.1573    0.8165
Li    Li616        0.6638    0.1085    0.9514
Li    Li617        0.6723    0.2347    0.0720
Li    Li618        0.5783    0.2812    0.1804
Li    Li619        0.6990    0.2307    0.1791
Li    Li620        0.5381    0.2622    0.0741
Li    Li621        0.5434    0.2915    0.2047
Li    Li622        0.5855    0.2896    0.0641
Li    Li623        0.6983    0.2389    0.4296
Li    Li624        0.5423    0.2706    0.3269
Li    Li625        0.5447    0.2820    0.4395
Li    Li626        0.6581    0.2129    0.4428
Li    Li627        0.6682    0.2383    0.5752
Li    Li628        0.5848    0.2567    0.6789
Li    Li629        0.5478    0.2846    0.5935
Li    Li630        0.5484    0.2885    0.6970
Li    Li631        0.5848    0.2855    0.5562
Li    Li632        0.6710    0.2428    0.8168
Li    Li633        0.7095    0.2363    0.9319
Li    Li634        0.7067    0.2099    0.8050
Li    Li635        0.6634    0.3314    0.0678
Li    Li636        0.5774    0.3653    0.1747
Li    Li637        0.6976    0.3452    0.1783
Li    Li638        0.7029    0.3073    0.0485
Li    Li639        0.6660    0.3107    0.1864
Li    Li640        0.5355    0.3604    0.3204
Li    Li641        0.5755    0.3881    0.3048
Li    Li642        0.6640    0.3266    0.5717
Li    Li643        0.5798    0.3674    0.6877
Li    Li644        0.7001    0.3386    0.6748
Li    Li645        0.5428    0.3844    0.6937
Li    Li646        0.7100    0.3159    0.5691
Li    Li647        0.5449    0.3610    0.8217
Li    Li648        0.5864    0.3889    0.8079
Li    Li649        0.5845    0.4595    0.1732
Li    Li650        0.7071    0.4391    0.1826
Li    Li651        0.5564    0.4676    0.0810
Li    Li652        0.5431    0.4860    0.1946
Li    Li653        0.5430    0.4733    0.3242
Li    Li654        0.5425    0.4934    0.4441
Li    Li655        0.7052    0.4118    0.3055
Li    Li656        0.6642    0.4364    0.5677
Li    Li657        0.5446    0.4650    0.5759
Li    Li658        0.5481    0.4922    0.6942
Li    Li659        0.5801    0.4915    0.5579
Li    Li660        0.6744    0.4392    0.8220
Li    Li661        0.5747    0.4645    0.9269
Li    Li662        0.5774    0.4932    0.8060
Li    Li663        0.6777    0.5417    0.0746
Li    Li664        0.7083    0.5299    0.1714
Li    Li665        0.5544    0.5666    0.0736
Li    Li666        0.5806    0.5864    0.0514
Li    Li667        0.5911    0.5568    0.4258
Li    Li668        0.7076    0.5330    0.4223
Li    Li669        0.5453    0.5634    0.3221
Li    Li670        0.5458    0.5876    0.4430
Li    Li671        0.7015    0.5096    0.3075
Li    Li672        0.6694    0.5102    0.4427
Li    Li673        0.5882    0.5568    0.6753
Li    Li674        0.7014    0.5175    0.5567
Li    Li675        0.6686    0.5138    0.6959
Li    Li676        0.6759    0.5443    0.8235
Li    Li677        0.5782    0.5670    0.9314
Li    Li678        0.7085    0.5538    0.9474
Li    Li679        0.5445    0.5620    0.8225
Li    Li680        0.5523    0.5880    0.9472
Li    Li681        0.6970    0.5138    0.8017
Li    Li682        0.6705    0.5176    0.9447
Li    Li683        0.5420    0.6829    0.2029
Li    Li684        0.5769    0.6840    0.0467
Li    Li685        0.6621    0.6417    0.3222
Li    Li686        0.5950    0.6740    0.4415
Li    Li687        0.7118    0.6486    0.4451
Li    Li688        0.5519    0.6599    0.3137
Li    Li689        0.5307    0.6916    0.4401
Li    Li690        0.7091    0.6166    0.3054
Li    Li691        0.5907    0.6900    0.3065
Li    Li692        0.6630    0.6391    0.5707
Li    Li693        0.7100    0.6389    0.6788
Li    Li694        0.5368    0.6594    0.5696
Li    Li695        0.5443    0.6843    0.6946
Li    Li696        0.5788    0.6921    0.5518
Li    Li697        0.6646    0.6114    0.6959
Li    Li698        0.6743    0.6363    0.8146
Li    Li699        0.5366    0.6892    0.8266
Li    Li700        0.5289    0.6894    0.9375
Li    Li701        0.7029    0.6189    0.8035
Li    Li702        0.5885    0.7663    0.1806
Li    Li703        0.7070    0.7369    0.1833
Li    Li704        0.6997    0.7115    0.0545
Li    Li705        0.6755    0.7339    0.3227
Li    Li706        0.5826    0.7575    0.4282
Li    Li707        0.7050    0.7415    0.4282
Li    Li708        0.5715    0.7700    0.3240
Li    Li709        0.5490    0.7740    0.4539
Li    Li710        0.7069    0.7144    0.3099
Li    Li711        0.5782    0.7796    0.2994
Li    Li712        0.6690    0.7109    0.4547
Li    Li713        0.6677    0.7362    0.5725
Li    Li714        0.5823    0.7705    0.6800
Li    Li715        0.7045    0.7316    0.6749
Li    Li716        0.5493    0.7601    0.5754
Li    Li717        0.7051    0.7122    0.5516
Li    Li718        0.6719    0.7107    0.7023
Li    Li719        0.6649    0.7253    0.9356
Li    Li720        0.6699    0.8338    0.0720
Li    Li721        0.5786    0.8664    0.1858
Li    Li722        0.5438    0.8687    0.0707
Li    Li723        0.5277    0.8946    0.1957
Li    Li724        0.7095    0.8106    0.0487
Li    Li725        0.5442    0.8809    0.4297
Li    Li726        0.6733    0.8155    0.9486
Li    Li727        0.5825    0.9571    0.1911
Li    Li728        0.5471    0.9850    0.2021
Li    Li729        0.6726    0.9154    0.2033
Li    Li730        0.5521    0.9637    0.3203
Li    Li731        0.5898    0.9941    0.3013
Li    Li732        0.7829    0.0555    0.0626
Li    Li733        0.9617    0.0375    0.4287
Li    Li734        0.8356    0.0629    0.9340
Li    Li735        0.8006    0.0632    0.8262
Li    Li736        0.7910    0.0939    0.9439
Li    Li737        0.8265    0.0813    0.8060
Li    Li738        0.9161    0.1382    0.0585
Li    Li739        0.8298    0.1684    0.1801
Li    Li740        0.7976    0.1591    0.0669
Li    Li741        0.9486    0.1097    0.0553
Li    Li742        0.8272    0.1876    0.0534
Li    Li743        0.8457    0.1541    0.4426
Li    Li744        0.7975    0.1569    0.3226
Li    Li745        0.7980    0.1770    0.4600
Li    Li746        0.9568    0.1172    0.3070
Li    Li747        0.9231    0.1363    0.5768
Li    Li748        0.9548    0.1336    0.6754
Li    Li749        0.9516    0.1144    0.5478
Li    Li750        0.8158    0.1860    0.5615
Li    Li751        0.9301    0.0987    0.6965
Li    Li752        0.9259    0.1448    0.8266
Li    Li753        0.8368    0.1627    0.9308
Li    Li754        0.8276    0.1870    0.8037
Li    Li755        0.8300    0.2824    0.1712
Li    Li756        0.9662    0.2110    0.1677
Li    Li757        0.9542    0.2093    0.0572
Li    Li758        0.9063    0.2218    0.1695
Li    Li759        0.9149    0.2425    0.3081
Li    Li760        0.8285    0.2615    0.4238
Li    Li761        0.9702    0.2335    0.4419
Li    Li762        0.7949    0.2866    0.4375
Li    Li763        0.9597    0.2135    0.3065
Li    Li764        0.9248    0.2369    0.5716
Li    Li765        0.8307    0.2603    0.6852
Li    Li766        0.9607    0.2261    0.6814
Li    Li767        0.7995    0.2724    0.5646
Li    Li768        0.8041    0.2916    0.6937
Li    Li769        0.9495    0.2167    0.5514
Li    Li770        0.8243    0.2839    0.5503
Li    Li771        0.9211    0.2167    0.6960
Li    Li772        0.9230    0.2338    0.8266
Li    Li773        0.9632    0.2415    0.9332
Li    Li774        0.8007    0.2504    0.8237
Li    Li775        0.9482    0.2147    0.7969
Li    Li776        0.8297    0.2871    0.7995
Li    Li777        0.9118    0.3459    0.0660
Li    Li778        0.8352    0.3635    0.1805
Li    Li779        0.9373    0.3290    0.1833
Li    Li780        0.7884    0.3904    0.1990
Li    Li781        0.9554    0.3179    0.0523
Li    Li782        0.8352    0.3892    0.0529
Li    Li783        0.9112    0.3061    0.1929
Li    Li784        0.8222    0.3559    0.4269
Li    Li785        0.9514    0.3386    0.4282
Li    Li786        0.7930    0.3646    0.3212
Li    Li787        0.7958    0.3867    0.4531
Li    Li788        0.9538    0.3123    0.3082
Li    Li789        0.9102    0.3132    0.4447
Li    Li790        0.9194    0.3425    0.5608
Li    Li791        0.9569    0.3354    0.6740
Li    Li792        0.9548    0.3317    0.9212
Li    Li793        0.9220    0.3121    0.9435
Li    Li794        0.9184    0.4346    0.0727
Li    Li795        0.7984    0.4673    0.0676
Li    Li796        0.8259    0.4845    0.0488
Li    Li797        0.9595    0.4417    0.4293
Li    Li798        0.7976    0.4624    0.3189
Li    Li799        0.7952    0.4970    0.4478
Li    Li800        0.9569    0.4106    0.3020
Li    Li801        0.8263    0.4697    0.6770
Li    Li802        0.7930    0.4654    0.5807
Li    Li803        0.7974    0.4831    0.6974
Li    Li804        0.9551    0.4120    0.5392
Li    Li805        0.9191    0.4112    0.6987
Li    Li806        0.9203    0.4386    0.8149
Li    Li807        0.8240    0.4661    0.9262
Li    Li808        0.9597    0.4362    0.9270
Li    Li809        0.8012    0.4773    0.9560
Li    Li810        0.9548    0.4105    0.8020
Li    Li811        0.9220    0.4139    0.9494
Li    Li812        0.9688    0.5463    0.1882
Li    Li813        0.9195    0.5382    0.3317
Li    Li814        0.8343    0.5659    0.4217
Li    Li815        0.8009    0.5908    0.4468
Li    Li816        0.9528    0.5195    0.3036
Li    Li817        0.8356    0.5939    0.2983
Li    Li818        0.9143    0.5382    0.5706
Li    Li819        0.7974    0.5638    0.5755
Li    Li820        0.8035    0.5889    0.6973
Li    Li821        0.9604    0.5131    0.5559
Li    Li822        0.8433    0.5938    0.5554
Li    Li823        0.9274    0.5207    0.6899
Li    Li824        0.9600    0.5373    0.9251
Li    Li825        0.9260    0.5187    0.9450
Li    Li826        0.8262    0.6630    0.1721
Li    Li827        0.7967    0.6813    0.1933
Li    Li828        0.8268    0.6610    0.4279
Li    Li829        0.9500    0.6390    0.4351
Li    Li830        0.7943    0.6905    0.4510
Li    Li831        0.9532    0.6103    0.3069
Li    Li832        0.8235    0.6793    0.3050
Li    Li833        0.9236    0.6137    0.4556
Li    Li834        0.9607    0.6446    0.6813
Li    Li835        0.7964    0.6690    0.5809
Li    Li836        0.9428    0.6129    0.5621
Li    Li837        0.8271    0.6846    0.5493
Li    Li838        0.9588    0.6401    0.9333
Li    Li839        0.7992    0.6867    0.9365
Li    Li840        0.8233    0.6913    0.8091
Li    Li841        0.9238    0.6171    0.9486
Li    Li842        0.8186    0.7656    0.1672
Li    Li843        0.9476    0.7441    0.1696
Li    Li844        0.9603    0.7174    0.0660
Li    Li845        0.9210    0.7144    0.1939
Li    Li846        0.7955    0.7681    0.3218
Li    Li847        0.8349    0.7898    0.3087
Li    Li848        0.9172    0.7426    0.5680
Li    Li849        0.8315    0.7612    0.6760
Li    Li850        0.9606    0.7353    0.6817
Li    Li851        0.7987    0.7945    0.6871
Li    Li852        0.9498    0.7164    0.5570
Li    Li853        0.9229    0.7133    0.6944
Li    Li854        0.9219    0.7397    0.8218
Li    Li855        0.8351    0.7592    0.9229
Li    Li856        0.9513    0.7403    0.9311
Li    Li857        0.7801    0.7479    0.8181
Li    Li858        0.7841    0.7866    0.9408
Li    Li859        0.9617    0.7116    0.8045
Li    Li860        0.9241    0.8320    0.0749
Li    Li861        0.8326    0.8574    0.1708
Li    Li862        0.9518    0.8353    0.1785
Li    Li863        0.9555    0.8129    0.0499
Li    Li864        0.9201    0.8351    0.3229
Li    Li865        0.9555    0.8347    0.4247
Li    Li866        0.9506    0.8139    0.3148
Li    Li867        0.9161    0.8322    0.5704
Li    Li868        0.9587    0.8145    0.5499
Li    Li869        0.8307    0.8656    0.9265
Li    Li870        0.7947    0.8716    0.8195
Li    Li871        0.7962    0.8880    0.9495
Li    Li872        0.8261    0.8938    0.8029
Li    Li873        0.7924    0.9893    0.9366
Li    Li874        0.9928    0.0868    0.2009
Li    Li875        0.2414    0.0089    0.2956
Li    Li876        0.1161    0.0852    0.3174
Li    Li877        0.1345    0.0177    0.4604
Li    Li878        0.1227    0.0835    0.5560
Li    Li879        0.2427    0.1407    0.1901
Li    Li880        0.0081    0.1583    0.0535
Li    Li881        0.1385    0.1087    0.1842
Li    Li882        0.0065    0.1638    0.3124
Li    Li883        0.0132    0.1847    0.4734
Li    Li884        0.1112    0.1927    0.3125
Li    Li885        0.0199    0.1862    0.5865
Li    Li886        0.9871    0.1946    0.7080
Li    Li887        0.9923    0.1611    0.8294
Li    Li888        0.1330    0.1080    0.9347
Li    Li889        0.2268    0.2022    0.0632
Li    Li890        0.1208    0.2850    0.3229
Li    Li891        0.1185    0.2109    0.4512
Li    Li892        0.1165    0.2676    0.6814
Li    Li893        0.2433    0.2437    0.6954
Li    Li894        0.0074    0.2595    0.5586
Li    Li895        0.2710    0.2129    0.5606
Li    Li896        0.1084    0.2911    0.5617
Li    Li897        0.1224    0.2138    0.6908
Li    Li898        0.1349    0.2324    0.8154
Li    Li899        0.2482    0.2315    0.9237
Li    Li900        0.1376    0.2203    0.9802
Li    Li901        0.1368    0.3591    0.1638
Li    Li902        0.2416    0.3181    0.0468
Li    Li903        0.1368    0.3272    0.1756
Li    Li904        0.1273    0.3444    0.4303
Li    Li905        0.2410    0.3352    0.4286
Li    Li906        0.9914    0.3859    0.4397
Li    Li907        0.2478    0.3058    0.3090
Li    Li908        0.1018    0.3966    0.3146
Li    Li909        0.2226    0.3088    0.5617
Li    Li910        0.1296    0.3548    0.9189
Li    Li911        0.2446    0.3438    0.9302
Li    Li912        0.9953    0.3584    0.8148
Li    Li913        0.9919    0.3860    0.9465
Li    Li914        0.2326    0.4375    0.1754
Li    Li915        0.0181    0.4935    0.1795
Li    Li916        0.2400    0.4169    0.0485
Li    Li917        0.1126    0.4631    0.4360
Li    Li918        0.9959    0.4628    0.3259
Li    Li919        0.1375    0.4855    0.3042
Li    Li920        0.1302    0.4057    0.4466
Li    Li921        0.1165    0.4364    0.5705
Li    Li922        0.2465    0.4334    0.6713
Li    Li923        0.0112    0.4592    0.5598
Li    Li924        0.2435    0.4200    0.5447
Li    Li925        0.1255    0.4606    0.9297
Li    Li926        0.0109    0.4787    0.9378
Li    Li927        0.1189    0.5624    0.4494
Li    Li928        0.0098    0.5622    0.3165
Li    Li929        0.0054    0.5910    0.7004
Li    Li930        0.2357    0.5133    0.5652
Li    Li931        0.1177    0.5830    0.5500
Li    Li932        0.1314    0.5340    0.8190
Li    Li933        0.1412    0.5601    0.9326
Li    Li934        0.2449    0.5178    0.7995
Li    Li935        0.1156    0.6679    0.1914
Li    Li936        0.2423    0.6324    0.1749
Li    Li937        0.0030    0.6829    0.1812
Li    Li938        0.2471    0.6142    0.0690
Li    Li939        0.2351    0.6120    0.3091
Li    Li940        0.1268    0.6071    0.4437
Li    Li941        0.1133    0.6625    0.6745
Li    Li942        0.2345    0.6151    0.5549
Li    Li943        0.1331    0.6114    0.6981
Li    Li944        0.1333    0.6221    0.8083
Li    Li945        0.0129    0.6624    0.8169
Li    Li946        0.0120    0.6636    0.9463
Li    Li947        0.1180    0.6909    0.8072
Li    Li948        0.0172    0.7598    0.0726
Li    Li949        0.2411    0.7149    0.0704
Li    Li950        0.2618    0.7293    0.4253
Li    Li951        0.9900    0.7937    0.4456
Li    Li952        0.1330    0.7093    0.4537
Li    Li953        0.1303    0.7618    0.6895
Li    Li954        0.1201    0.7069    0.6963
Li    Li955        0.2633    0.7009    0.8187
Li    Li956        0.0304    0.8514    0.0592
Li    Li957        0.1159    0.8873    0.0436
Li    Li958        0.2364    0.8340    0.4229
Li    Li959        0.2452    0.8091    0.7941
Li    Li960        0.1028    0.9338    0.0800
Li    Li961        0.2578    0.9345    0.1821
Li    Li962        0.1296    0.9083    0.4426
Li    Li963        0.4969    0.0361    0.1856
Li    Li964        0.3948    0.0445    0.3083
Li    Li965        0.2525    0.0624    0.3400
Li    Li966        0.4987    0.0054    0.3109
Li    Li967        0.2293    0.1674    0.0687
Li    Li968        0.2547    0.1670    0.3064
Li    Li969        0.2438    0.1882    0.4410
Li    Li970        0.3674    0.1940    0.3144
Li    Li971        0.3881    0.1147    0.4489
Li    Li972        0.2557    0.1830    0.7124
Li    Li973        0.3694    0.1809    0.5637
Li    Li974        0.3632    0.1631    0.9396
Li    Li975        0.2539    0.1659    0.8237
Li    Li976        0.3575    0.1911    0.7981
Li    Li977        0.5074    0.2364    0.1832
Li    Li978        0.2535    0.2693    0.0519
Li    Li979        0.5180    0.2187    0.0440
Li    Li980        0.3830    0.2422    0.3023
Li    Li981        0.3594    0.2571    0.4255
Li    Li982        0.4969    0.2137    0.3202
Li    Li983        0.3867    0.2159    0.7140
Li    Li984        0.3769    0.2412    0.8190
Li    Li985        0.2523    0.2700    0.8485
Li    Li986        0.2587    0.2911    0.9489
Li    Li987        0.2576    0.3672    0.0447
Li    Li988        0.4934    0.3212    0.0487
Li    Li989        0.3579    0.3863    0.0586
Li    Li990        0.4846    0.3084    0.3094
Li    Li991        0.3914    0.3417    0.5597
Li    Li992        0.3527    0.3546    0.6913
Li    Li993        0.4907    0.3355    0.6817
Li    Li994        0.2562    0.3890    0.7062
Li    Li995        0.4906    0.3363    0.5698
Li    Li996        0.3677    0.3782    0.7764
Li    Li997        0.3552    0.3190    0.9545
Li    Li998        0.3846    0.4708    0.1813
Li    Li999        0.4947    0.4402    0.1837
Li    Li1000        0.2643    0.4649    0.0730
Li    Li1001        0.3669    0.4649    0.4256
Li    Li1002        0.4927    0.4145    0.3077
Li    Li1003        0.3670    0.4766    0.3267
Li    Li1004        0.3882    0.4147    0.4567
Li    Li1005        0.3923    0.4593    0.6986
Li    Li1006        0.2342    0.5086    0.6793
Li    Li1007        0.3781    0.4229    0.6915
Li    Li1008        0.3995    0.4413    0.8189
Li    Li1009        0.2445    0.4651    0.8259
Li    Li1010        0.2733    0.5539    0.0627
Li    Li1011        0.5159    0.5185    0.0679
Li    Li1012        0.3718    0.5774    0.0717
Li    Li1013        0.4928    0.5320    0.3208
Li    Li1014        0.3760    0.5727    0.3033
Li    Li1015        0.3688    0.5365    0.5718
Li    Li1016        0.4929    0.5479    0.6887
Li    Li1017        0.2521    0.5639    0.5655
Li    Li1018        0.2551    0.5789    0.7039
Li    Li1019        0.3729    0.5861    0.5463
Li    Li1020        0.3870    0.5386    0.8075
Li    Li1021        0.5096    0.5322    0.9233
Li    Li1022        0.3776    0.6623    0.1702
Li    Li1023        0.4858    0.6294    0.1894
Li    Li1024        0.2422    0.6613    0.0704
Li    Li1025        0.2566    0.6728    0.3396
Li    Li1026        0.2546    0.6868    0.4608
Li    Li1027        0.3945    0.6422    0.5659
Li    Li1028        0.3757    0.6629    0.6669
Li    Li1029        0.4899    0.6384    0.6705
Li    Li1030        0.2583    0.6776    0.6893
Li    Li1031        0.4986    0.6560    0.9649
Li    Li1032        0.4977    0.6301    0.8147
Li    Li1033        0.3872    0.6157    0.9536
Li    Li1034        0.3873    0.7362    0.0627
Li    Li1035        0.4791    0.7050    0.0684
Li    Li1036        0.3662    0.7815    0.0564
Li    Li1037        0.3621    0.7600    0.4383
Li    Li1038        0.4894    0.7430    0.4403
Li    Li1039        0.4895    0.7420    0.6870
Li    Li1040        0.4882    0.7098    0.5663
Li    Li1041        0.3815    0.7111    0.7017
Li    Li1042        0.3827    0.7470    0.9261
Li    Li1043        0.2682    0.7527    0.8125
Li    Li1044        0.3843    0.8322    0.0595
Li    Li1045        0.4930    0.8170    0.0709
Li    Li1046        0.3734    0.8712    0.4475
Li    Li1047        0.2539    0.8709    0.3185
Li    Li1048        0.3767    0.8217    0.4414
Li    Li1049        0.4761    0.8156    0.5254
Li    Li1050        0.3705    0.8949    0.5680
Li    Li1051        0.3560    0.9501    0.1954
Li    Li1052        0.4977    0.9385    0.1877
Li    Li1053        0.2587    0.9825    0.1930
Li    Li1054        0.3818    0.9586    0.4241
Li    Li1055        0.2566    0.9871    0.4431
Li    Li1056        0.3843    0.9177    0.4588
Li    Li1057        0.4952    0.9082    0.5654
Li    Li1058        0.6144    0.0640    0.1969
Li    Li1059        0.5068    0.0699    0.0966
Li    Li1060        0.5031    0.0823    0.1852
Li    Li1061        0.6289    0.0181    0.1915
Li    Li1062        0.5142    0.0550    0.3126
Li    Li1063        0.7283    0.9945    0.3134
Li    Li1064        0.6288    0.0823    0.3055
Li    Li1065        0.7471    0.0384    0.9381
Li    Li1066        0.6096    0.0160    0.9575
Li    Li1067        0.5133    0.1575    0.0639
Li    Li1068        0.7491    0.1093    0.0479
Li    Li1069        0.6162    0.1884    0.0707
Li    Li1070        0.5153    0.1623    0.8163
Li    Li1071        0.6361    0.1128    0.9495
Li    Li1072        0.6166    0.2493    0.0841
Li    Li1073        0.6172    0.2677    0.1829
Li    Li1074        0.5040    0.2557    0.0585
Li    Li1075        0.7360    0.2350    0.4346
Li    Li1076        0.5027    0.2830    0.4399
Li    Li1077        0.6288    0.2055    0.4325
Li    Li1078        0.5080    0.2900    0.6925
Li    Li1079        0.6174    0.2894    0.5606
Li    Li1080        0.6327    0.2436    0.8150
Li    Li1081        0.7443    0.2271    0.8041
Li    Li1082        0.7288    0.2983    0.0518
Li    Li1083        0.6307    0.3090    0.1883
Li    Li1084        0.5994    0.3903    0.3053
Li    Li1085        0.6301    0.3365    0.5763
Li    Li1086        0.7411    0.3209    0.6492
Li    Li1087        0.4852    0.3828    0.6958
Li    Li1088        0.7328    0.3054    0.5611
Li    Li1089        0.5240    0.3486    0.8083
Li    Li1090        0.6145    0.4732    0.1542
Li    Li1091        0.5141    0.4882    0.1906
Li    Li1092        0.6156    0.4761    0.0477
Li    Li1093        0.4794    0.4618    0.3100
Li    Li1094        0.5139    0.5000    0.4158
Li    Li1095        0.7432    0.4156    0.3077
Li    Li1096        0.5028    0.4516    0.5687
Li    Li1097        0.5021    0.4887    0.6867
Li    Li1098        0.6174    0.4735    0.9423
Li    Li1099        0.6151    0.4897    0.8090
Li    Li1100        0.4901    0.5571    0.0720
Li    Li1101        0.5076    0.5912    0.1908
Li    Li1102        0.6327    0.5164    0.1931
Li    Li1103        0.7544    0.5153    0.3040
Li    Li1104        0.6141    0.5870    0.3113
Li    Li1105        0.7466    0.5086    0.5437
Li    Li1106        0.6379    0.5133    0.6899
Li    Li1107        0.6337    0.5589    0.9254
Li    Li1108        0.5100    0.5815    0.9342
Li    Li1109        0.6292    0.5165    0.9556
Li    Li1110        0.6191    0.6654    0.4152
Li    Li1111        0.5020    0.6891    0.4507
Li    Li1112        0.6353    0.6375    0.5541
Li    Li1113        0.7466    0.6340    0.6835
Li    Li1114        0.4877    0.6867    0.6846
Li    Li1115        0.6392    0.6005    0.6903
Li    Li1116        0.6200    0.6390    0.8155
Li    Li1117        0.5044    0.6649    0.8124
Li    Li1118        0.7417    0.6136    0.7851
Li    Li1119        0.7225    0.7060    0.0535
Li    Li1120        0.7443    0.7196    0.2896
Li    Li1121        0.6242    0.7143    0.4491
Li    Li1122        0.6115    0.7765    0.6945
Li    Li1123        0.7393    0.7392    0.6914
Li    Li1124        0.4995    0.7687    0.5689
Li    Li1125        0.7408    0.7097    0.5522
Li    Li1126        0.6318    0.7112    0.6871
Li    Li1127        0.4952    0.7692    0.9646
Li    Li1128        0.5097    0.8875    0.1751
Li    Li1129        0.6232    0.8867    0.0558
Li    Li1130        0.4921    0.8947    0.4446
Li    Li1131        0.7424    0.8331    0.9266
Li    Li1132        0.5146    0.9872    0.1841
Li    Li1133        0.4991    0.9723    0.3434
Li    Li1134        0.7631    0.9351    0.9189
Li    Li1135        0.7596    0.0658    0.0557
Li    Li1136        0.8789    0.0272    0.8126
Li    Li1137        0.7569    0.0640    0.8169
Li    Li1138        0.8699    0.0871    0.8102
Li    Li1139        0.8824    0.1423    0.0558
Li    Li1140        0.8639    0.1756    0.1564
Li    Li1141        0.7618    0.1515    0.0549
Li    Li1142        0.9955    0.1162    0.0540
Li    Li1143        0.8702    0.1888    0.0547
Li    Li1144        0.7614    0.1594    0.3301
Li    Li1145        0.7690    0.1963    0.4250
Li    Li1146        0.9875    0.1338    0.6806
Li    Li1147        0.9936    0.1207    0.5295
Li    Li1148        0.8741    0.1886    0.5426
Li    Li1149        0.8900    0.1414    0.8119
Li    Li1150        0.8703    0.1512    0.9519
Li    Li1151        0.8548    0.1999    0.8172
Li    Li1152        0.8833    0.2352    0.0728
Li    Li1153        0.9945    0.2317    0.1885
Li    Li1154        0.8743    0.2630    0.4274
Li    Li1155        0.7559    0.2833    0.4258
Li    Li1156        0.9976    0.2150    0.3109
Li    Li1157        0.8742    0.2536    0.6782
Li    Li1158        0.9888    0.2239    0.7012
Li    Li1159        0.7575    0.2742    0.5812
Li    Li1160        0.9984    0.2115    0.5598
Li    Li1161        0.8701    0.2971    0.5544
Li    Li1162        0.8796    0.2165    0.7009
Li    Li1163        0.8834    0.2381    0.8203
Li    Li1164        0.9883    0.2407    0.9436
Li    Li1165        0.8840    0.3338    0.0638
Li    Li1166        0.8658    0.3624    0.4345
Li    Li1167        0.9889    0.3341    0.4259
Li    Li1168        0.7577    0.3634    0.3360
Li    Li1169        0.9773    0.3037    0.3130
Li    Li1170        0.8908    0.3204    0.5509
Li    Li1171        0.9835    0.3160    0.5776
Li    Li1172        0.8702    0.3892    0.5646
Li    Li1173        0.9898    0.3297    0.9428
Li    Li1174        0.8743    0.4399    0.0688
Li    Li1175        0.7622    0.4714    0.0888
Li    Li1176        0.8658    0.4841    0.0509
Li    Li1177        0.7486    0.4645    0.3197
Li    Li1178        0.7682    0.4543    0.5704
Li    Li1179        0.7585    0.4852    0.6879
Li    Li1180        0.8623    0.4130    0.7006
Li    Li1181        0.8854    0.4437    0.8272
Li    Li1182        0.9929    0.4364    0.9273
Li    Li1183        0.7546    0.4811    0.9366
Li    Li1184        0.9931    0.4129    0.8061
Li    Li1185        0.8641    0.4346    0.9652
Li    Li1186        0.0125    0.5359    0.1865
Li    Li1187        0.7556    0.5882    0.4436
Li    Li1188        0.7453    0.5631    0.5475
Li    Li1189        0.7627    0.5952    0.6745
Li    Li1190        0.8895    0.5940    0.5511
Li    Li1191        0.9938    0.5410    0.9235
Li    Li1192        0.9862    0.6450    0.1827
Li    Li1193        0.7749    0.6992    0.1870
Li    Li1194        0.9842    0.5997    0.0636
Li    Li1195        0.8653    0.6581    0.4342
Li    Li1196        0.7550    0.6888    0.4273
Li    Li1197        0.8837    0.6149    0.4414
Li    Li1198        0.7603    0.6837    0.6949
Li    Li1199        0.8792    0.6863    0.5597
Li    Li1200        0.7695    0.6883    0.9517
Li    Li1201        0.8541    0.6958    0.8199
Li    Li1202        0.8876    0.6163    0.9509
Li    Li1203        0.8746    0.7649    0.1874
Li    Li1204        0.7457    0.7565    0.0680
Li    Li1205        0.7589    0.7856    0.1950
Li    Li1206        0.8974    0.7121    0.1878
Li    Li1207        0.7752    0.7549    0.3196
Li    Li1208        0.8671    0.7900    0.3118
Li    Li1209        0.8681    0.7380    0.5620
Li    Li1210        0.8818    0.7923    0.5758
Li    Li1211        0.8810    0.7234    0.8206
Li    Li1212        0.8645    0.7633    0.9356
Li    Li1213        0.7311    0.7852    0.9544
Li    Li1214        0.8572    0.8544    0.1874
Li    Li1215        0.9869    0.8062    0.3157
Li    Li1216        0.8710    0.8610    0.9283
Li    Li1217        0.2088    0.0569    0.2376
Li    Li1218        0.0407    0.0891    0.1419
Li    Li1219        0.0814    0.1067    0.1147
Li    Li1220        0.0817    0.0465    0.4794
Li    Li1221        0.1720    0.0330    0.2652
Li    Li1222        0.2036    0.0562    0.4928
Li    Li1223        0.0330    0.0909    0.3836
Li    Li1224        0.1642    0.9979    0.3998
Li    Li1225        0.0848    0.1036    0.3608
Li    Li1226        0.0454    0.0522    0.5098
Li    Li1227        0.2006    0.1239    0.2430
Li    Li1228        0.0729    0.1512    0.4760
Li    Li1229        0.0490    0.1546    0.2594
Li    Li1230        0.2038    0.0954    0.3583
Li    Li1231        0.1656    0.1044    0.4032
Li    Li1232        0.0828    0.2022    0.3587
Li    Li1233        0.0396    0.1515    0.5162
Li    Li1234        0.2174    0.1447    0.7443
Li    Li1235        0.2004    0.1134    0.6058
Li    Li1236        0.0769    0.1548    0.9830
Li    Li1237        0.0455    0.1506    0.7689
Li    Li1238        0.2071    0.1537    0.9804
Li    Li1239        0.1666    0.2438    0.0172
Li    Li1240        0.0475    0.2544    0.2598
Li    Li1241        0.2025    0.2073    0.3565
Li    Li1242        0.0897    0.3045    0.3481
Li    Li1243        0.1675    0.2518    0.5131
Li    Li1244        0.2048    0.2430    0.7243
Li    Li1245        0.0412    0.2985    0.6344
Li    Li1246        0.1574    0.1997    0.6294
Li    Li1247        0.0814    0.2874    0.6060
Li    Li1248        0.2065    0.2071    0.8606
Li    Li1249        0.1681    0.2138    0.8981
Li    Li1250        0.1666    0.3426    0.2607
Li    Li1251        0.0467    0.3462    0.2720
Li    Li1252        0.2009    0.3077    0.3680
Li    Li1253        0.0280    0.4025    0.3768
Li    Li1254        0.1748    0.3138    0.3797
Li    Li1255        0.0824    0.3558    0.9885
Li    Li1256        0.2077    0.3394    0.9758
Li    Li1257        0.2041    0.3046    0.8646
Li    Li1258        0.0880    0.3928    0.8580
Li    Li1259        0.2057    0.3952    0.1127
Li    Li1260        0.0452    0.4911    0.1368
Li    Li1261        0.0783    0.4960    0.1120
Li    Li1262        0.1673    0.4379    0.2639
Li    Li1263        0.2101    0.4514    0.4764
Li    Li1264        0.2049    0.3928    0.3646
Li    Li1265        0.1702    0.3970    0.3916
Li    Li1266        0.0810    0.4960    0.3579
Li    Li1267        0.0468    0.4635    0.5197
Li    Li1268        0.2095    0.4574    0.7205
Li    Li1269        0.1573    0.3929    0.6498
Li    Li1270        0.0416    0.4440    0.7680
Li    Li1271        0.2111    0.4455    0.9775
Li    Li1272        0.2047    0.3901    0.8730
Li    Li1273        0.0666    0.4811    0.8671
Li    Li1274        0.0890    0.5972    0.1143
Li    Li1275        0.0383    0.5511    0.2600
Li    Li1276        0.2100    0.5025    0.3561
Li    Li1277        0.0775    0.6036    0.3567
Li    Li1278        0.2049    0.4999    0.6191
Li    Li1279        0.0403    0.5906    0.6423
Li    Li1280        0.1687    0.5132    0.6403
Li    Li1281        0.1706    0.5543    0.7499
Li    Li1282        0.2072    0.5068    0.8598
Li    Li1283        0.0482    0.5840    0.8985
Li    Li1284        0.0808    0.6614    0.2331
Li    Li1285        0.1668    0.6504    0.0221
Li    Li1286        0.0527    0.6589    0.0111
Li    Li1287        0.2070    0.6102    0.1113
Li    Li1288        0.0412    0.6967    0.1540
Li    Li1289        0.1727    0.6094    0.1466
Li    Li1290        0.0845    0.6640    0.4836
Li    Li1291        0.2033    0.6384    0.4780
Li    Li1292        0.2061    0.6063    0.3539
Li    Li1293        0.1742    0.6029    0.3859
Li    Li1294        0.1620    0.6479    0.4958
Li    Li1295        0.0377    0.7046    0.6504
Li    Li1296        0.0751    0.6930    0.6068
Li    Li1297        0.0807    0.6563    0.9848
Li    Li1298        0.2057    0.6412    0.9938
Li    Li1299        0.0418    0.7002    0.8799
Li    Li1300        0.0831    0.8093    0.0990
Li    Li1301        0.2029    0.7026    0.3668
Li    Li1302        0.0784    0.7933    0.3658
Li    Li1303        0.0770    0.7639    0.7326
Li    Li1304        0.1684    0.7482    0.5165
Li    Li1305        0.0470    0.8062    0.6389
Li    Li1306        0.1816    0.6997    0.6380
Li    Li1307        0.0834    0.8900    0.1064
Li    Li1308        0.2032    0.8550    0.4772
Li    Li1309        0.1803    0.8142    0.3785
Li    Li1310        0.1563    0.9035    0.1367
Li    Li1311        0.0899    0.9649    0.4915
Li    Li1312        0.2164    0.9040    0.3657
Li    Li1313        0.1683    0.8935    0.3874
Li    Li1314        0.3195    0.0448    0.2480
Li    Li1315        0.4592    0.0019    0.1329
Li    Li1316        0.4057    0.0497    0.2478
Li    Li1317        0.4504    0.0342    0.4824
Li    Li1318        0.4619    0.0416    0.9817
Li    Li1319        0.4189    0.1552    0.0122
Li    Li1320        0.2934    0.1555    0.0071
Li    Li1321        0.2940    0.1980    0.1455
Li    Li1322        0.4197    0.1072    0.3985
Li    Li1323        0.3386    0.1538    0.7358
Li    Li1324        0.4121    0.1572    0.4992
Li    Li1325        0.4226    0.1516    0.7640
Li    Li1326        0.4593    0.1396    0.9816
Li    Li1327        0.2905    0.1908    0.8880
Li    Li1328        0.4478    0.1108    0.8857
Li    Li1329        0.3250    0.2020    0.8629
Li    Li1330        0.2932    0.2536    0.0132
Li    Li1331        0.4569    0.2089    0.1083
Li    Li1332        0.4156    0.2006    0.1472
Li    Li1333        0.3296    0.3057    0.1011
Li    Li1334        0.4085    0.2373    0.2599
Li    Li1335        0.2879    0.3095    0.4084
Li    Li1336        0.4574    0.2534    0.7337
Li    Li1337        0.3361    0.2584    0.9851
Li    Li1338        0.2951    0.2593    0.7634
Li    Li1339        0.4230    0.2080    0.8854
Li    Li1340        0.3368    0.2960    0.8806
Li    Li1341        0.3347    0.3508    0.2317
Li    Li1342        0.4164    0.3464    0.0220
Li    Li1343        0.2967    0.3548    0.0122
Li    Li1344        0.4601    0.3490    0.2472
Li    Li1345        0.4571    0.3016    0.1114
Li    Li1346        0.3058    0.3987    0.1309
Li    Li1347        0.4208    0.3037    0.1326
Li    Li1348        0.3257    0.3907    0.1172
Li    Li1349        0.4216    0.3464    0.2754
Li    Li1350        0.4591    0.2967    0.3549
Li    Li1351        0.4356    0.3311    0.5104
Li    Li1352        0.2937    0.3565    0.5185
Li    Li1353        0.4474    0.3563    0.7292
Li    Li1354        0.4681    0.2993    0.6255
Li    Li1355        0.2934    0.3953    0.6482
Li    Li1356        0.3022    0.3561    0.7562
Li    Li1357        0.4148    0.2935    0.8815
Li    Li1358        0.2913    0.4436    0.0088
Li    Li1359        0.4542    0.4447    0.2423
Li    Li1360        0.3367    0.4994    0.1140
Li    Li1361        0.4246    0.4611    0.2617
Li    Li1362        0.4505    0.4470    0.4895
Li    Li1363        0.3324    0.4608    0.7286
Li    Li1364        0.2942    0.5039    0.6380
Li    Li1365        0.3236    0.4544    0.9889
Li    Li1366        0.4566    0.4082    0.8564
Li    Li1367        0.4586    0.5467    0.2448
Li    Li1368        0.4513    0.5010    0.1068
Li    Li1369        0.4263    0.4982    0.1449
Li    Li1370        0.2881    0.6060    0.3971
Li    Li1371        0.4099    0.4961    0.3904
Li    Li1372        0.2916    0.5480    0.5170
Li    Li1373        0.3253    0.5418    0.9950
Li    Li1374        0.4259    0.5431    0.7532
Li    Li1375        0.2802    0.5596    0.7549
Li    Li1376        0.2902    0.5909    0.8888
Li    Li1377        0.3229    0.6739    0.2460
Li    Li1378        0.4657    0.6460    0.2504
Li    Li1379        0.4543    0.6091    0.1109
Li    Li1380        0.2965    0.6881    0.1422
Li    Li1381        0.3262    0.6976    0.1104
Li    Li1382        0.3369    0.6481    0.4877
Li    Li1383        0.4552    0.6442    0.4886
Li    Li1384        0.2994    0.6974    0.3852
Li    Li1385        0.3347    0.6607    0.7280
Li    Li1386        0.2980    0.6545    0.5157
Li    Li1387        0.4556    0.6172    0.6063
Li    Li1388        0.2940    0.6471    0.7634
Li    Li1389        0.4634    0.6466    0.9988
Li    Li1390        0.4596    0.6040    0.8566
Li    Li1391        0.4237    0.7386    0.0128
Li    Li1392        0.2876    0.7466    0.5182
Li    Li1393        0.4534    0.7414    0.7313
Li    Li1394        0.4491    0.7135    0.6178
Li    Li1395        0.4600    0.7525    0.0049
Li    Li1396        0.4618    0.6907    0.8689
Li    Li1397        0.3303    0.7956    0.8714
Li    Li1398        0.2936    0.8545    0.0175
Li    Li1399        0.4565    0.8362    0.4788
Li    Li1400        0.4188    0.8525    0.5190
Li    Li1401        0.2931    0.8600    0.5148
Li    Li1402        0.4552    0.7932    0.6032
Li    Li1403        0.3383    0.8966    0.6194
Li    Li1404        0.3366    0.9530    0.2345
Li    Li1405        0.4595    0.9081    0.1077
Li    Li1406        0.4206    0.9443    0.2709
Li    Li1407        0.4795    0.9057    0.3747
Li    Li1408        0.2990    0.9910    0.3798
Li    Li1409        0.3302    0.0067    0.3584
Li    Li1410        0.4184    0.9549    0.5134
Li    Li1411        0.5348    0.0426    0.0235
Li    Li1412        0.5333    0.1103    0.1513
Li    Li1413        0.7133    0.0492    0.7442
Li    Li1414        0.5813    0.0485    0.9802
Li    Li1415        0.6662    0.0536    0.7705
Li    Li1416        0.5825    0.1026    0.8710
Li    Li1417        0.5430    0.1486    0.0208
Li    Li1418        0.7048    0.1020    0.1165
Li    Li1419        0.6763    0.0954    0.1224
Li    Li1420        0.7063    0.1486    0.9843
Li    Li1421        0.5829    0.1901    0.8557
Li    Li1422        0.7004    0.2507    0.2334
Li    Li1423        0.6678    0.2011    0.1505
Li    Li1424        0.5406    0.2512    0.2615
Li    Li1425        0.7008    0.2382    0.4826
Li    Li1426        0.7059    0.1988    0.3567
Li    Li1427        0.5767    0.2874    0.3593
Li    Li1428        0.6659    0.2416    0.5141
Li    Li1429        0.5806    0.2904    0.6210
Li    Li1430        0.6995    0.2429    0.9941
Li    Li1431        0.7049    0.2096    0.8596
Li    Li1432        0.5394    0.3440    0.0139
Li    Li1433        0.7066    0.3098    0.1015
Li    Li1434        0.5436    0.3446    0.2756
Li    Li1435        0.7110    0.3084    0.6038
Li    Li1436        0.5814    0.4002    0.8642
Li    Li1437        0.6574    0.4534    0.0273
Li    Li1438        0.6626    0.4104    0.1358
Li    Li1439        0.5406    0.5016    0.3898
Li    Li1440        0.5825    0.4949    0.3558
Li    Li1441        0.5845    0.4893    0.6165
Li    Li1442        0.5819    0.4536    0.9874
Li    Li1443        0.6859    0.4126    0.8684
Li    Li1444        0.5830    0.5490    0.2460
Li    Li1445        0.7082    0.5468    0.2306
Li    Li1446        0.7056    0.5101    0.1111
Li    Li1447        0.6517    0.5043    0.1249
Li    Li1448        0.7074    0.5353    0.4802
Li    Li1449        0.5382    0.6030    0.3763
Li    Li1450        0.6755    0.4919    0.3850
Li    Li1451        0.5879    0.5923    0.3678
Li    Li1452        0.5536    0.6011    0.6279
Li    Li1453        0.5889    0.6040    0.6276
Li    Li1454        0.5844    0.5548    0.9888
Li    Li1455        0.6716    0.5583    0.7624
Li    Li1456        0.7121    0.5028    0.8627
Li    Li1457        0.5485    0.5988    0.8776
Li    Li1458        0.5784    0.6532    0.2385
Li    Li1459        0.5456    0.6462    0.0201
Li    Li1460        0.5854    0.6532    0.4777
Li    Li1461        0.5445    0.6513    0.2697
Li    Li1462        0.7077    0.6528    0.4734
Li    Li1463        0.6614    0.6015    0.6468
Li    Li1464        0.5896    0.6981    0.6113
Li    Li1465        0.5779    0.6534    0.9984
Li    Li1466        0.5404    0.8000    0.1448
Li    Li1467        0.6720    0.7517    0.2697
Li    Li1468        0.7031    0.7064    0.3575
Li    Li1469        0.5438    0.8059    0.4018
Li    Li1470        0.5841    0.7924    0.3590
Li    Li1471        0.5340    0.7505    0.5046
Li    Li1472        0.5515    0.8043    0.6392
Li    Li1473        0.7043    0.7427    0.9807
Li    Li1474        0.7089    0.7067    0.8573
Li    Li1475        0.6645    0.8526    0.0167
Li    Li1476        0.7218    0.8428    0.2474
Li    Li1477        0.5385    0.8837    0.1468
Li    Li1478        0.6655    0.7996    0.1356
Li    Li1479        0.7130    0.8470    0.9821
Li    Li1480        0.6661    0.9078    0.1455
Li    Li1481        0.7910    0.0603    0.0127
Li    Li1482        0.9501    0.0475    0.4910
Li    Li1483        0.8319    0.0549    0.7238
Li    Li1484        0.8421    0.0522    0.0044
Li    Li1485        0.7749    0.0593    0.7517
Li    Li1486        0.8246    0.1478    0.2313
Li    Li1487        0.7919    0.1540    0.0237
Li    Li1488        0.7940    0.1981    0.1373
Li    Li1489        0.8344    0.1619    0.4863
Li    Li1490        0.9530    0.1045    0.3681
Li    Li1491        0.7936    0.1879    0.3885
Li    Li1492        0.7974    0.1562    0.5171
Li    Li1493        0.7961    0.1600    0.7684
Li    Li1494        0.9516    0.1130    0.8588
Li    Li1495        0.9205    0.0953    0.8928
Li    Li1496        0.9193    0.2064    0.1425
Li    Li1497        0.9060    0.2545    0.2566
Li    Li1498        0.9556    0.2048    0.3614
Li    Li1499        0.7937    0.3004    0.3900
Li    Li1500        0.7952    0.2550    0.5124
Li    Li1501        0.7935    0.3002    0.6447
Li    Li1502        0.9175    0.2104    0.6353
Li    Li1503        0.9081    0.2029    0.8797
Li    Li1504        0.8306    0.3556    0.2295
Li    Li1505        0.9276    0.3512    0.0132
Li    Li1506        0.7901    0.4024    0.1355
Li    Li1507        0.9139    0.3012    0.1462
Li    Li1508        0.7905    0.3537    0.2675
Li    Li1509        0.9526    0.3442    0.4896
Li    Li1510        0.9581    0.3024    0.3537
Li    Li1511        0.9728    0.3103    0.6204
Li    Li1512        0.9250    0.3082    0.6350
Li    Li1513        0.9185    0.2926    0.8820
Li    Li1514        0.9124    0.4424    0.0131
Li    Li1515        0.9580    0.4439    0.2376
Li    Li1516        0.9552    0.4068    0.1156
Li    Li1517        0.9173    0.4091    0.1409
Li    Li1518        0.7947    0.4447    0.2714
Li    Li1519        0.7896    0.5056    0.3854
Li    Li1520        0.7988    0.4964    0.6301
Li    Li1521        0.8386    0.4984    0.6074
Li    Li1522        0.8334    0.4451    0.9843
Li    Li1523        0.7711    0.4890    0.8778
Li    Li1524        0.9639    0.4936    0.3594
Li    Li1525        0.8394    0.5981    0.3678
Li    Li1526        0.8387    0.5479    0.7284
Li    Li1527        0.9602    0.4990    0.6174
Li    Li1528        0.8334    0.5943    0.6131
Li    Li1529        0.9161    0.6453    0.0180
Li    Li1530        0.9568    0.6138    0.1062
Li    Li1531        0.7890    0.7071    0.1544
Li    Li1532        0.9553    0.6066    0.3577
Li    Li1533        0.7981    0.6871    0.3894
Li    Li1534        0.8239    0.6919    0.3656
Li    Li1535        0.9533    0.6044    0.6135
Li    Li1536        0.8000    0.6533    0.7680
Li    Li1537        0.9533    0.6353    0.9845
Li    Li1538        0.7928    0.7055    0.8983
Li    Li1539        0.8339    0.6850    0.8601
Li    Li1540        0.9108    0.7492    0.9972
Li    Li1541        0.7909    0.7505    0.0127
Li    Li1542        0.9436    0.7407    0.2364
Li    Li1543        0.9702    0.7028    0.1195
Li    Li1544        0.8279    0.8020    0.1067
Li    Li1545        0.9584    0.7632    0.4621
Li    Li1546        0.8311    0.7521    0.7214
Li    Li1547        0.9212    0.6972    0.6400
Li    Li1548        0.8333    0.7479    0.9832
Li    Li1549        0.9164    0.7459    0.7622
Li    Li1550        0.7938    0.7442    0.7678
Li    Li1551        0.9562    0.7435    0.9813
Li    Li1552        0.9518    0.7104    0.8630
Li    Li1553        0.7941    0.8080    0.9058
Li    Li1554        0.9212    0.8434    0.0183
Li    Li1555        0.7938    0.8591    0.0184
Li    Li1556        0.9535    0.8387    0.2358
Li    Li1557        0.8327    0.8946    0.1079
Li    Li1558        0.7926    0.8497    0.2514
Li    Li1559        0.9575    0.8085    0.6013
Li    Li1560        0.7996    0.8993    0.8864
Li    Li1561        0.9102    0.9025    0.8793
Li    Li1562        0.1495    0.0359    0.2157
Li    Li1563        0.9826    0.0103    0.4062
Li    Li1564        0.2379    0.0855    0.3411
Li    Li1565        0.1440    0.0437    0.4597
Li    Li1566        0.2549    0.0610    0.4809
Li    Li1567        0.0088    0.0334    0.5279
Li    Li1568        0.1265    0.1186    0.1138
Li    Li1569        0.1453    0.1331    0.2285
Li    Li1570        0.2663    0.1675    0.2278
Li    Li1571        0.0084    0.1464    0.0288
Li    Li1572        0.9917    0.1038    0.4060
Li    Li1573        0.1323    0.1171    0.3582
Li    Li1574        0.1312    0.1891    0.4108
Li    Li1575        0.1081    0.1609    0.2704
Li    Li1576        0.1133    0.1391    0.4681
Li    Li1577        0.2673    0.1614    0.4576
Li    Li1578        0.0014    0.1120    0.6513
Li    Li1579        0.1267    0.1087    0.5718
Li    Li1580        0.1128    0.1829    0.6535
Li    Li1581        0.1243    0.1554    0.5296
Li    Li1582        0.1243    0.1376    0.7198
Li    Li1583        0.2514    0.1643    0.7411
Li    Li1584        0.9838    0.1386    0.5152
Li    Li1585        0.9849    0.1101    0.9002
Li    Li1586        0.1365    0.1829    0.9007
Li    Li1587        0.1214    0.1611    0.7815
Li    Li1588        0.1436    0.1305    0.9706
Li    Li1589        0.9917    0.1292    0.7750
Li    Li1590        0.2702    0.2871    0.1057
Li    Li1591        0.1255    0.2119    0.0765
Li    Li1592        0.1341    0.2640    0.0321
Li    Li1593        0.9854    0.2224    0.4018
Li    Li1594        0.1110    0.2116    0.3414
Li    Li1595        0.1268    0.2892    0.3871
Li    Li1596        0.2386    0.2670    0.4670
Li    Li1597        0.0175    0.2329    0.2783
Li    Li1598        0.2649    0.2873    0.5952
Li    Li1599        0.1066    0.2194    0.5962
Li    Li1600        0.1244    0.2550    0.5354
Li    Li1601        0.1363    0.2357    0.7058
Li    Li1602        0.2306    0.2624    0.7212
Li    Li1603        0.9959    0.2302    0.5271
Li    Li1604        0.9912    0.2144    0.9006
Li    Li1605        0.1334    0.2126    0.8443
Li    Li1606        0.2672    0.2699    0.9743
Li    Li1607        0.2468    0.3895    0.1064
Li    Li1608        0.1289    0.3935    0.1498
Li    Li1609        0.1041    0.3624    0.0345
Li    Li1610        0.2606    0.3788    0.2282
Li    Li1611        0.0142    0.3385    0.0260
Li    Li1612        0.9859    0.3095    0.4145
Li    Li1613        0.2433    0.3947    0.3310
Li    Li1614        0.1170    0.3852    0.3990
Li    Li1615        0.1290    0.3626    0.2759
Li    Li1616        0.1438    0.3298    0.4687
Li    Li1617        0.2562    0.3613    0.4704
Li    Li1618        0.0114    0.3273    0.2743
Li    Li1619        0.9960    0.3128    0.6351
Li    Li1620        0.1175    0.3074    0.5995
Li    Li1621        0.2542    0.3516    0.7144
Li    Li1622        0.2610    0.3832    0.8537
Li    Li1623        0.1281    0.3893    0.8989
Li    Li1624        0.1305    0.3309    0.9721
Li    Li1625        0.9909    0.3318    0.7753
Li    Li1626        0.1123    0.4189    0.1039
Li    Li1627        0.1353    0.4336    0.2205
Li    Li1628        0.2281    0.4622    0.2188
Li    Li1629        0.9827    0.4131    0.4142
Li    Li1630        0.2641    0.4819    0.3460
Li    Li1631        0.1449    0.4113    0.3525
Li    Li1632        0.1282    0.4910    0.3981
Li    Li1633        0.1243    0.4591    0.2662
Li    Li1634        0.2372    0.4637    0.4607
Li    Li1635        0.9811    0.4353    0.2876
Li    Li1636        0.9927    0.4187    0.6472
Li    Li1637        0.2505    0.4905    0.5892
Li    Li1638        0.1406    0.4166    0.6119
Li    Li1639        0.1280    0.4420    0.7144
Li    Li1640        0.2513    0.4592    0.7187
Li    Li1641        0.9930    0.4336    0.5259
Li    Li1642        0.9940    0.4159    0.8940
Li    Li1643        0.2523    0.4871    0.8400
Li    Li1644        0.1195    0.4120    0.8474
Li    Li1645        0.1392    0.4864    0.9065
Li    Li1646        0.2647    0.4581    0.9653
Li    Li1647        0.9942    0.4435    0.7886
Li    Li1648        0.0057    0.5071    0.4117
Li    Li1649        0.2528    0.5834    0.3450
Li    Li1650        0.1395    0.5191    0.3510
Li    Li1651        0.1222    0.5902    0.3905
Li    Li1652        0.2545    0.5654    0.4722
Li    Li1653        0.0114    0.5487    0.2694
Li    Li1654        0.2364    0.5826    0.6009
Li    Li1655        0.1295    0.5118    0.5951
Li    Li1656        0.1297    0.5803    0.6557
Li    Li1657        0.1377    0.5506    0.7103
Li    Li1658        0.9970    0.5118    0.9015
Li    Li1659        0.1414    0.5127    0.8610
Li    Li1660        0.1068    0.5869    0.8957
Li    Li1661        0.1307    0.5403    0.9641
Li    Li1662        0.2599    0.5612    0.9853
Li    Li1663        0.9939    0.6245    0.1546
Li    Li1664        0.2516    0.6846    0.0983
Li    Li1665        0.1317    0.6177    0.0993
Li    Li1666        0.1265    0.6366    0.2287
Li    Li1667        0.2330    0.6669    0.2177
Li    Li1668        0.9882    0.6394    0.0265
Li    Li1669        0.9995    0.6086    0.4143
Li    Li1670        0.2665    0.6955    0.3442
Li    Li1671        0.1176    0.6091    0.3442
Li    Li1672        0.1212    0.6436    0.4638
Li    Li1673        0.2505    0.6611    0.4662
Li    Li1674        0.9935    0.6191    0.6449
Li    Li1675        0.1458    0.6147    0.5973
Li    Li1676        0.1275    0.6559    0.5391
Li    Li1677        0.1304    0.6366    0.7281
Li    Li1678        0.2394    0.6650    0.7159
Li    Li1679        0.9840    0.6368    0.5371
Li    Li1680        0.0023    0.6066    0.9105
Li    Li1681        0.1119    0.6128    0.8408
Li    Li1682        0.1093    0.6686    0.7744
Li    Li1683        0.1220    0.6402    0.9690
Li    Li1684        0.0018    0.7081    0.1540
Li    Li1685        0.9920    0.7419    0.0378
Li    Li1686        0.1304    0.7921    0.3974
Li    Li1687        0.1206    0.7467    0.4916
Li    Li1688        0.0163    0.7142    0.6537
Li    Li1689        0.2502    0.7916    0.5900
Li    Li1690        0.1273    0.7955    0.6526
Li    Li1691        0.1342    0.7390    0.7239
Li    Li1692        0.0001    0.7474    0.5325
Li    Li1693        0.2698    0.7848    0.8468
Li    Li1694        0.1232    0.7122    0.8435
Li    Li1695        0.9985    0.7429    0.7750
Li    Li1696        0.9916    0.8100    0.1472
Li    Li1697        0.2583    0.8839    0.1028
Li    Li1698        0.1312    0.7997    0.0912
Li    Li1699        0.1245    0.8793    0.1498
Li    Li1700        0.1083    0.8610    0.0410
Li    Li1701        0.9982    0.8400    0.0371
Li    Li1702        0.9787    0.8147    0.4111
Li    Li1703        0.2590    0.8829    0.3569
Li    Li1704        0.1320    0.8867    0.3934
Li    Li1705        0.1373    0.8346    0.4657
Li    Li1706        0.2446    0.8549    0.4745
Li    Li1707        0.0139    0.8116    0.6496
Li    Li1708        0.1204    0.8457    0.9832
Li    Li1709        0.1277    0.9118    0.0947
Li    Li1710        0.2341    0.9723    0.2269
Li    Li1711        0.2659    0.9850    0.3523
Li    Li1712        0.1228    0.9834    0.4077
Li    Li1713        0.1240    0.9381    0.4668
Li    Li1714        0.2573    0.9546    0.4585
Li    Li1715        0.2471    0.0086    0.1632
Li    Li1716        0.3767    0.0636    0.0286
Li    Li1717        0.3569    0.0298    0.2197
Li    Li1718        0.4865    0.0647    0.2216
Li    Li1719        0.2462    0.0055    0.4074
Li    Li1720        0.3613    0.0889    0.4078
Li    Li1721        0.2486    0.0390    0.2768
Li    Li1722        0.2344    0.0359    0.5250
Li    Li1723        0.5022    0.0586    0.9571
Li    Li1724        0.2249    0.1168    0.1626
Li    Li1725        0.4866    0.1893    0.0998
Li    Li1726        0.3949    0.1819    0.1485
Li    Li1727        0.3809    0.1374    0.2323
Li    Li1728        0.2302    0.1361    0.0381
Li    Li1729        0.3754    0.1612    0.2821
Li    Li1730        0.2400    0.1328    0.2725
Li    Li1731        0.3721    0.1685    0.5216
Li    Li1732        0.3883    0.1433    0.7130
Li    Li1733        0.5022    0.1846    0.8522
Li    Li1734        0.3765    0.1165    0.8455
Li    Li1735        0.3774    0.1856    0.9025
Li    Li1736        0.3789    0.1650    0.7772
Li    Li1737        0.3646    0.1362    0.9712
Li    Li1738        0.2445    0.1407    0.7752
Li    Li1739        0.5007    0.2849    0.0978
Li    Li1740        0.3899    0.2129    0.0987
Li    Li1741        0.3753    0.2453    0.2222
Li    Li1742        0.5021    0.2604    0.2141
Li    Li1743        0.2448    0.2306    0.0199
Li    Li1744        0.5114    0.2819    0.3559
Li    Li1745        0.3814    0.2226    0.3480
Li    Li1746        0.3738    0.2357    0.4749
Li    Li1747        0.4891    0.2650    0.4716
Li    Li1748        0.2372    0.2182    0.6497
Li    Li1749        0.4890    0.2836    0.5906
Li    Li1750        0.3746    0.2582    0.5209
Li    Li1751        0.3954    0.2430    0.7169
Li    Li1752        0.5028    0.2593    0.7218
Li    Li1753        0.2452    0.2070    0.9127
Li    Li1754        0.3759    0.2076    0.8531
Li    Li1755        0.3567    0.2921    0.9118
Li    Li1756        0.3718    0.2706    0.7739
Li    Li1757        0.3646    0.2377    0.9729
Li    Li1758        0.2381    0.2328    0.7728
Li    Li1759        0.3639    0.3126    0.0990
Li    Li1760        0.3679    0.3823    0.1515
Li    Li1761        0.3634    0.3627    0.0336
Li    Li1762        0.3804    0.3403    0.2071
Li    Li1763        0.2438    0.3388    0.0305
Li    Li1764        0.2294    0.3149    0.4043
Li    Li1765        0.3740    0.3942    0.4118
Li    Li1766        0.3641    0.3567    0.2818
Li    Li1767        0.3724    0.3357    0.4736
Li    Li1768        0.3705    0.3153    0.5960
Li    Li1769        0.3731    0.3646    0.5272
Li    Li1770        0.3721    0.3360    0.7253
Li    Li1771        0.2604    0.3286    0.5276
Li    Li1772        0.2443    0.3130    0.9153
Li    Li1773        0.3978    0.3150    0.8553
Li    Li1774        0.3771    0.3344    0.9774
Li    Li1775        0.4923    0.3603    0.9711
Li    Li1776        0.2402    0.4064    0.1661
Li    Li1777        0.5167    0.4796    0.0958
Li    Li1778        0.3779    0.4111    0.0989
Li    Li1779        0.3747    0.4913    0.1432
Li    Li1780        0.3577    0.4359    0.2206
Li    Li1781        0.4995    0.4942    0.3359
Li    Li1782        0.3816    0.4245    0.3548
Li    Li1783        0.3751    0.4643    0.2731
Li    Li1784        0.3961    0.4347    0.4687
Li    Li1785        0.4860    0.4624    0.4746
Li    Li1786        0.2408    0.4071    0.6588
Li    Li1787        0.4984    0.4864    0.5990
Li    Li1788        0.3883    0.4316    0.7284
Li    Li1789        0.2411    0.4304    0.5204
Li    Li1790        0.2413    0.4092    0.9029
Li    Li1791        0.3688    0.4907    0.9144
Li    Li1792        0.3768    0.4648    0.7778
Li    Li1793        0.3760    0.4360    0.9739
Li    Li1794        0.3865    0.5212    0.0978
Li    Li1795        0.3570    0.5667    0.0322
Li    Li1796        0.3831    0.5287    0.2356
Li    Li1797        0.5079    0.5629    0.2156
Li    Li1798        0.3755    0.5379    0.4704
Li    Li1799        0.5075    0.5570    0.4625
Li    Li1800        0.2298    0.5127    0.6530
Li    Li1801        0.3693    0.5123    0.5982
Li    Li1802        0.3567    0.5700    0.5207
Li    Li1803        0.2509    0.5365    0.5198
Li    Li1804        0.5056    0.5824    0.8575
Li    Li1805        0.3759    0.5936    0.9094
Li    Li1806        0.3929    0.5308    0.9741
Li    Li1807        0.2501    0.5410    0.7753
Li    Li1808        0.2507    0.6148    0.1565
Li    Li1809        0.3694    0.6851    0.1372
Li    Li1810        0.3693    0.6583    0.0341
Li    Li1811        0.3649    0.6445    0.2337
Li    Li1812        0.5041    0.6613    0.2154
Li    Li1813        0.3787    0.6192    0.3565
Li    Li1814        0.3681    0.6930    0.4145
Li    Li1815        0.3754    0.6630    0.2789
Li    Li1816        0.3668    0.6376    0.4701
Li    Li1817        0.2441    0.6368    0.2781
Li    Li1818        0.2503    0.6031    0.6536
Li    Li1819        0.5154    0.6824    0.6068
Li    Li1820        0.3914    0.6358    0.7205
Li    Li1821        0.5090    0.6935    0.8411
Li    Li1822        0.3850    0.6099    0.8272
Li    Li1823        0.3797    0.6322    0.9728
Li    Li1824        0.2528    0.6380    0.7805
Li    Li1825        0.4958    0.7926    0.0986
Li    Li1826        0.3963    0.7670    0.0262
Li    Li1827        0.2530    0.7129    0.3993
Li    Li1828        0.3633    0.7838    0.3955
Li    Li1829        0.2419    0.7079    0.6572
Li    Li1830        0.3814    0.7077    0.5949
Li    Li1831        0.3603    0.7566    0.5423
Li    Li1832        0.3731    0.7484    0.7127
Li    Li1833        0.5078    0.7601    0.7261
Li    Li1834        0.3804    0.7389    0.9660
Li    Li1835        0.4906    0.8860    0.0934
Li    Li1836        0.5204    0.8804    0.3512
Li    Li1837        0.4976    0.8636    0.4733
Li    Li1838        0.2480    0.8330    0.2815
Li    Li1839        0.2584    0.9032    0.1494
Li    Li1840        0.3718    0.9161    0.0945
Li    Li1841        0.3884    0.9885    0.1578
Li    Li1842        0.2404    0.9011    0.3992
Li    Li1843        0.4949    0.9985    0.3689
Li    Li1844        0.3613    0.9651    0.2763
Li    Li1845        0.3946    0.9353    0.4749
Li    Li1846        0.3644    0.9109    0.6028
Li    Li1847        0.3737    0.9597    0.5298
Li    Li1848        0.4958    0.0168    0.1560
Li    Li1849        0.7629    0.0840    0.0859
Li    Li1850        0.6147    0.0867    0.1672
Li    Li1851        0.4935    0.0371    0.0187
Li    Li1852        0.4977    0.0124    0.4058
Li    Li1853        0.6434    0.0156    0.3564
Li    Li1854        0.6091    0.0582    0.2881
Li    Li1855        0.5035    0.0368    0.2774
Li    Li1856        0.7549    0.0958    0.8470
Li    Li1857        0.6178    0.0936    0.9005
Li    Li1858        0.6194    0.0372    0.9753
Li    Li1859        0.7542    0.0610    0.9685
Li    Li1860        0.4849    0.1127    0.1300
Li    Li1861        0.7549    0.1946    0.0862
Li    Li1862        0.6282    0.1863    0.1561
Li    Li1863        0.6404    0.1643    0.0354
Li    Li1864        0.7473    0.1829    0.3443
Li    Li1865        0.6231    0.1124    0.3547
Li    Li1866        0.7550    0.1591    0.7246
Li    Li1867        0.7457    0.1850    0.8421
Li    Li1868        0.6094    0.1893    0.9071
Li    Li1869        0.6100    0.1336    0.9727
Li    Li1870        0.7491    0.1655    0.9665
Li    Li1871        0.4948    0.2093    0.1606
Li    Li1872        0.6429    0.2145    0.1014
Li    Li1873        0.6210    0.2984    0.1582
Li    Li1874        0.6091    0.2803    0.3927
Li    Li1875        0.6122    0.2596    0.2946
Li    Li1876        0.7481    0.2949    0.5903
Li    Li1877        0.6146    0.2613    0.5129
Li    Li1878        0.4946    0.2093    0.9073
Li    Li1879        0.7553    0.2919    0.8386
Li    Li1880        0.6127    0.2161    0.8482
Li    Li1881        0.4967    0.3176    0.1594
Li    Li1882        0.7591    0.3855    0.0821
Li    Li1883        0.6380    0.3096    0.0877
Li    Li1884        0.6289    0.3939    0.1524
Li    Li1885        0.6104    0.3409    0.2173
Li    Li1886        0.5180    0.3418    0.0285
Li    Li1887        0.4976    0.3126    0.3886
Li    Li1888        0.6204    0.3636    0.2759
Li    Li1889        0.5162    0.3131    0.6521
Li    Li1890        0.6152    0.2971    0.6174
Li    Li1891        0.6369    0.3918    0.8914
Li    Li1892        0.4686    0.3346    0.7869
Li    Li1893        0.7432    0.4812    0.0987
Li    Li1894        0.6244    0.4097    0.0909
Li    Li1895        0.6341    0.4863    0.1557
Li    Li1896        0.7576    0.4870    0.3475
Li    Li1897        0.6292    0.4152    0.3450
Li    Li1898        0.6426    0.4870    0.4076
Li    Li1899        0.4927    0.4083    0.6563
Li    Li1900        0.6287    0.4875    0.6516
Li    Li1901        0.6296    0.4597    0.5402
Li    Li1902        0.5042    0.4367    0.5274
Li    Li1903        0.6358    0.4088    0.8410
Li    Li1904        0.7697    0.4654    0.9624
Li    Li1905        0.5075    0.5118    0.1525
Li    Li1906        0.6151    0.5132    0.0944
Li    Li1907        0.6268    0.5632    0.0261
Li    Li1908        0.4950    0.5312    0.0184
Li    Li1909        0.6271    0.5882    0.4042
Li    Li1910        0.6038    0.5637    0.2902
Li    Li1911        0.6237    0.5450    0.4777
Li    Li1912        0.4941    0.5212    0.6485
Li    Li1913        0.7694    0.5905    0.5949
Li    Li1914        0.6268    0.5877    0.6526
Li    Li1915        0.6289    0.5380    0.7330
Li    Li1916        0.7415    0.5619    0.7189
Li    Li1917        0.4914    0.5145    0.8920
Li    Li1918        0.6362    0.5146    0.8535
Li    Li1919        0.6180    0.5871    0.9112
Li    Li1920        0.6097    0.5589    0.7843
Li    Li1921        0.6438    0.5331    0.9730
Li    Li1922        0.5015    0.5414    0.7836
Li    Li1923        0.5004    0.6124    0.1573
Li    Li1924        0.7505    0.6862    0.1041
Li    Li1925        0.7627    0.6603    0.2166
Li    Li1926        0.5073    0.6384    0.0281
Li    Li1927        0.4896    0.6149    0.3904
Li    Li1928        0.7304    0.6901    0.3487
Li    Li1929        0.6261    0.6129    0.3479
Li    Li1930        0.6181    0.6554    0.2872
Li    Li1931        0.6343    0.6420    0.4665
Li    Li1932        0.7561    0.6587    0.4697
Li    Li1933        0.6169    0.6859    0.6473
Li    Li1934        0.6182    0.6590    0.5388
Li    Li1935        0.6419    0.6354    0.7124
Li    Li1936        0.7577    0.6737    0.7302
Li    Li1937        0.4923    0.6356    0.5423
Li    Li1938        0.6215    0.6033    0.8479
Li    Li1939        0.6209    0.6545    0.7835
Li    Li1940        0.5037    0.7068    0.1600
Li    Li1941        0.7532    0.7908    0.0941
Li    Li1942        0.6199    0.7113    0.0907
Li    Li1943        0.6288    0.7377    0.2202
Li    Li1944        0.7377    0.7795    0.3489
Li    Li1945        0.6154    0.7073    0.3446
Li    Li1946        0.6186    0.7818    0.4026
Li    Li1947        0.6169    0.7648    0.2714
Li    Li1948        0.6262    0.7380    0.4737
Li    Li1949        0.4918    0.7040    0.6577
Li    Li1950        0.6221    0.7405    0.7163
Li    Li1951        0.4856    0.7385    0.5284
Li    Li1952        0.7654    0.7633    0.9763
Li    Li1953        0.4943    0.7387    0.7861
Li    Li1954        0.6363    0.8870    0.1529
Li    Li1955        0.7580    0.8525    0.2314
Li    Li1956        0.4843    0.8340    0.0263
Li    Li1957        0.4911    0.8409    0.5351
Li    Li1958        0.7553    0.8909    0.8404
Li    Li1959        0.6348    0.8388    0.9719
Li    Li1960        0.7600    0.8619    0.9821
Li    Li1961        0.6291    0.9300    0.2188
Li    Li1962        0.7672    0.9617    0.9604
Li    Li1963        0.9877    0.0817    0.3447
Li    Li1964        0.0144    0.0578    0.4632
Li    Li1965        0.8783    0.0913    0.6588
Li    Li1966        0.7451    0.0106    0.9046
Li    Li1967        0.8852    0.0056    0.8408
Li    Li1968        0.8671    0.0841    0.9012
Li    Li1969        0.8705    0.0646    0.7753
Li    Li1970        0.7508    0.0370    0.7851
Li    Li1971        0.7453    0.1082    0.1555
Li    Li1972        0.0055    0.1897    0.0926
Li    Li1973        0.8856    0.1919    0.1418
Li    Li1974        0.8806    0.1387    0.2297
Li    Li1975        0.7664    0.1326    0.0272
Li    Li1976        0.9954    0.1918    0.3516
Li    Li1977        0.8731    0.1903    0.4027
Li    Li1978        0.9973    0.1624    0.7301
Li    Li1979        0.7421    0.1033    0.8971
Li    Li1980        0.9991    0.1904    0.8529
Li    Li1981        0.8781    0.1116    0.8395
Li    Li1982        0.8695    0.1855    0.8883
Li    Li1983        0.8881    0.1700    0.7863
Li    Li1984        0.0119    0.1688    0.9819
Li    Li1985        0.8636    0.2159    0.0944
Li    Li1986        0.8711    0.2859    0.1592
Li    Li1987        0.8641    0.2382    0.2205
Li    Li1988        0.7338    0.2338    0.0343
Li    Li1989        0.8717    0.2092    0.3404
Li    Li1990        0.8659    0.2358    0.4682
Li    Li1991        0.9888    0.2664    0.4802
Li    Li1992        0.9848    0.2887    0.5982
Li    Li1993        0.8712    0.2144    0.5983
Li    Li1994        0.8702    0.2876    0.6535
Li    Li1995        0.8900    0.2349    0.7151
Li    Li1996        0.7426    0.2345    0.5193
Li    Li1997        0.7330    0.2116    0.9139
Li    Li1998        0.8745    0.2118    0.8339
Li    Li1999        0.8776    0.2841    0.8992
Li    Li2000        0.8701    0.2606    0.7831
Li    Li2001        0.0078    0.2527    0.9689
Li    Li2002        0.7346    0.3187    0.1714
Li    Li2003        0.8714    0.3091    0.1086
Li    Li2004        0.8724    0.3687    0.0252
Li    Li2005        0.8742    0.3414    0.2170
Li    Li2006        0.7493    0.3385    0.0324
Li    Li2007        0.7381    0.3071    0.3857
Li    Li2008        0.9977    0.3893    0.3583
Li    Li2009        0.8756    0.3898    0.3974
Li    Li2010        0.8724    0.3619    0.2725
Li    Li2011        0.8839    0.3432    0.4728
Li    Li2012        0.7681    0.3436    0.2738
Li    Li2013        0.7627    0.3114    0.6602
Li    Li2014        0.0196    0.3879    0.6048
Li    Li2015        0.8592    0.3093    0.5975
Li    Li2016        0.0112    0.3771    0.8580
Li    Li2017        0.0094    0.3550    0.9685
Li    Li2018        0.7393    0.4137    0.1686
Li    Li2019        0.8812    0.4596    0.0122
Li    Li2020        0.9868    0.4646    0.2204
Li    Li2021        0.0022    0.4868    0.3375
Li    Li2022        0.8880    0.4039    0.3413
Li    Li2023        0.8715    0.4671    0.2711
Li    Li2024        0.8966    0.4311    0.4728
Li    Li2025        0.7407    0.4246    0.2752
Li    Li2026        0.0034    0.4849    0.6007
Li    Li2027        0.8585    0.4392    0.7232
Li    Li2028        0.0093    0.4581    0.7129
Li    Li2029        0.8836    0.4643    0.7773
Li    Li2030        0.8688    0.4506    0.9882
Li    Li2031        0.0078    0.5841    0.1000
Li    Li2032        0.8657    0.5159    0.0957
Li    Li2033        0.0142    0.5588    0.2192
Li    Li2034        0.7378    0.5400    0.0419
Li    Li2035        0.0083    0.5811    0.3541
Li    Li2036        0.8622    0.5842    0.3913
Li    Li2037        0.8863    0.5365    0.4685
Li    Li2038        0.0014    0.5567    0.4615
Li    Li2039        0.7460    0.5331    0.2795
Li    Li2040        0.7547    0.5057    0.6396
Li    Li2041        0.8622    0.5770    0.6476
Li    Li2042        0.8825    0.5595    0.5224
Li    Li2043        0.8860    0.5403    0.7087
Li    Li2044        0.7725    0.5186    0.5214
Li    Li2045        0.7491    0.5132    0.9017
Li    Li2046        0.7608    0.5363    0.7844
Li    Li2047        0.0007    0.6879    0.1056
Li    Li2048        0.8984    0.6648    0.0295
Li    Li2049        0.9849    0.6629    0.2224
Li    Li2050        0.8741    0.6068    0.3443
Li    Li2051        0.8715    0.6596    0.2844
Li    Li2052        0.8806    0.6368    0.4730
Li    Li2053        0.9815    0.6641    0.4712
Li    Li2054        0.7482    0.6396    0.2699
Li    Li2055        0.8624    0.6876    0.9029
Li    Li2056        0.0106    0.6549    0.9708
Li    Li2057        0.7479    0.6385    0.7751
Li    Li2058        0.7517    0.7101    0.1500
Li    Li2059        0.9997    0.7887    0.0945
Li    Li2060        0.8707    0.7957    0.1636
Li    Li2061        0.8723    0.7599    0.0331
Li    Li2062        0.8753    0.7391    0.2229
Li    Li2063        0.7544    0.7392    0.0366
Li    Li2064        0.7387    0.7108    0.4083
Li    Li2065        0.8929    0.7350    0.4621
Li    Li2066        0.0007    0.7588    0.4689
Li    Li2067        0.7438    0.7211    0.6431
Li    Li2068        0.9872    0.7867    0.5947
Li    Li2069        0.8913    0.7131    0.6043
Li    Li2070        0.8805    0.7548    0.5138
Li    Li2071        0.8760    0.7472    0.7217
Li    Li2072        0.9951    0.7591    0.7238
Li    Li2073        0.7517    0.7422    0.5307
Li    Li2074        0.7449    0.7071    0.9072
Li    Li2075        0.8648    0.7015    0.8609
Li    Li2076        0.8736    0.7836    0.8986
Li    Li2077        0.8708    0.7611    0.7843
Li    Li2078        0.8679    0.7340    0.9687
Li    Li2079        0.7377    0.7315    0.7776
Li    Li2080        0.7354    0.8071    0.1589
Li    Li2081        0.8543    0.8235    0.0966
Li    Li2082        0.8535    0.8792    0.1460
Li    Li2083        0.8727    0.8349    0.2103
Li    Li2084        0.7418    0.8146    0.4000
Li    Li2085        0.8851    0.8075    0.3440
Li    Li2086        0.7377    0.8277    0.2779
Li    Li2087        0.8631    0.8133    0.8427
Li    Li2088        0.8788    0.8906    0.9017
Li    Li2089        0.8991    0.8341    0.9740
Li    Li2090        0.8633    0.9167    0.8468
Li    Li2091        0.8744    0.9907    0.8997
