data_max_cluster
_audit_creation_method         'generated by data2config v5.5c'
 
_cell_length_a                  84.92680
_cell_length_b                  87.57400
_cell_length_c                  75.14280
_cell_angle_alpha               90.00000
_cell_angle_beta                96.73700
_cell_angle_gamma               90.00000
 
loop_
_symmetry_equiv_pos_as_xyz
'+x,+y,+z'
 
loop_
_atom_site_type_symbol
_atom_site_label
_atom_site_fract_x
_atom_site_fract_y
_atom_site_fract_z
Li    Li1        0.0241    0.0645    0.4489
Li    Li2        0.0292    0.0957    0.3364
Li    Li3        0.2156    0.0051    0.4081
Li    Li4        0.1562    0.0347    0.7142
Li    Li5        0.2063    0.0184    0.6473
Li    Li6        0.2216    0.1312    0.2853
Li    Li7        0.0839    0.1906    0.4189
Li    Li8        0.2154    0.1164    0.4015
Li    Li9        0.1708    0.1391    0.7218
Li    Li10        0.2154    0.1367    0.7847
Li    Li11        0.1703    0.2413    0.4774
Li    Li12        0.2165    0.2116    0.4206
Li    Li13        0.0310    0.2602    0.7025
Li    Li14        0.0631    0.2541    0.5396
Li    Li15        0.1663    0.2049    0.5802
Li    Li16        0.0238    0.2847    0.5980
Li    Li17        0.2099    0.2381    0.7910
Li    Li18        0.0300    0.3824    0.0911
Li    Li19        0.2145    0.3328    0.2903
Li    Li20        0.0366    0.3669    0.4637
Li    Li21        0.0920    0.3582    0.2903
Li    Li22        0.1530    0.3133    0.3400
Li    Li23        0.0291    0.3752    0.3550
Li    Li24        0.1636    0.3370    0.7023
Li    Li25        0.0855    0.3826    0.6473
Li    Li26        0.2155    0.3296    0.7691
Li    Li27        0.0409    0.3557    0.9614
Li    Li28        0.0999    0.3836    0.9047
Li    Li29        0.2141    0.3106    0.9161
Li    Li30        0.0882    0.4974    0.1637
Li    Li31        0.1561    0.4118    0.0818
Li    Li32        0.2119    0.4168    0.1650
Li    Li33        0.0432    0.4623    0.4740
Li    Li34        0.0193    0.4885    0.3391
Li    Li35        0.1553    0.4377    0.6986
Li    Li36        0.0845    0.4650    0.5239
Li    Li37        0.0339    0.4922    0.5782
Li    Li38        0.2215    0.4332    0.7905
Li    Li39        0.1502    0.4363    0.9678
Li    Li40        0.0847    0.4625    0.7921
Li    Li41        0.0829    0.4708    0.8915
Li    Li42        0.2030    0.4097    0.9095
Li    Li43        0.1662    0.5395    0.4800
Li    Li44        0.2067    0.5177    0.3959
Li    Li45        0.1665    0.5202    0.5953
Li    Li46        0.0273    0.5658    0.9640
Li    Li47        0.0921    0.5816    0.9104
Li    Li48        0.1650    0.5136    0.8389
Li    Li49        0.0333    0.6700    0.2128
Li    Li50        0.0406    0.6898    0.0855
Li    Li51        0.2078    0.6268    0.2660
Li    Li52        0.0901    0.6607    0.2900
Li    Li53        0.0849    0.6868    0.4071
Li    Li54        0.0441    0.6903    0.3344
Li    Li55        0.1647    0.6088    0.5785
Li    Li56        0.1595    0.7416    0.4684
Li    Li57        0.2214    0.7101    0.4218
Li    Li58        0.2257    0.7340    0.5273
Li    Li59        0.0381    0.7523    0.7097
Li    Li60        0.1673    0.7138    0.5853
Li    Li61        0.2122    0.7132    0.6683
Li    Li62        0.2144    0.7153    0.9285
Li    Li63        0.2144    0.8416    0.0376
Li    Li64        0.1649    0.8119    0.0802
Li    Li65        0.2126    0.8313    0.5289
Li    Li66        0.0882    0.8585    0.5265
Li    Li67        0.0455    0.8816    0.5956
Li    Li68        0.1623    0.8113    0.8307
Li    Li69        0.0426    0.9863    0.0942
Li    Li70        0.2023    0.9440    0.2933
Li    Li71        0.1644    0.9195    0.3362
Li    Li72        0.0319    0.9919    0.3327
Li    Li73        0.0347    0.9652    0.7126
Li    Li74        0.1510    0.9325    0.9683
Li    Li75        0.0832    0.9587    0.7782
Li    Li76        0.4807    0.0299    0.2706
Li    Li77        0.2985    0.0650    0.4541
Li    Li78        0.4139    0.0119    0.3453
Li    Li79        0.3502    0.0682    0.7853
Li    Li80        0.2897    0.0872    0.8303
Li    Li81        0.2767    0.1616    0.2053
Li    Li82        0.4081    0.1334    0.2067
Li    Li83        0.4733    0.1134    0.1500
Li    Li84        0.2946    0.1874    0.3321
Li    Li85        0.2860    0.1580    0.7010
Li    Li86        0.3346    0.1789    0.6647
Li    Li87        0.3403    0.1620    0.7797
Li    Li88        0.4159    0.1101    0.8319
Li    Li89        0.2723    0.1865    0.8312
Li    Li90        0.2873    0.2584    0.2078
Li    Li91        0.3993    0.2405    0.2208
Li    Li92        0.3423    0.2879    0.1577
Li    Li93        0.2916    0.2899    0.0782
Li    Li94        0.4598    0.2078    0.1678
Li    Li95        0.4166    0.2175    0.3365
Li    Li96        0.4700    0.2373    0.7852
Li    Li97        0.4104    0.2424    0.9654
Li    Li98        0.2734    0.2881    0.8336
Li    Li99        0.4639    0.3175    0.0199
Li    Li100        0.2844    0.3562    0.2161
Li    Li101        0.4103    0.3416    0.2039
Li    Li102        0.3367    0.3852    0.1537
Li    Li103        0.4075    0.3128    0.0723
Li    Li104        0.2911    0.3831    0.0866
Li    Li105        0.4535    0.3107    0.1640
Li    Li106        0.2846    0.3616    0.4565
Li    Li107        0.2883    0.3627    0.7113
Li    Li108        0.3429    0.3594    0.5450
Li    Li109        0.3393    0.3893    0.6605
Li    Li110        0.2814    0.3861    0.8307
Li    Li111        0.4131    0.4364    0.2002
Li    Li112        0.2946    0.4607    0.4639
Li    Li113        0.3550    0.4606    0.2946
Li    Li114        0.4661    0.4491    0.7898
Li    Li115        0.3495    0.4679    0.7894
Li    Li116        0.4568    0.5383    0.0306
Li    Li117        0.2839    0.5823    0.0834
Li    Li118        0.3989    0.5034    0.3371
Li    Li119        0.3329    0.6646    0.0228
Li    Li120        0.4172    0.6144    0.0919
Li    Li121        0.4598    0.6191    0.1598
Li    Li122        0.4595    0.6360    0.2940
Li    Li123        0.3440    0.6872    0.6580
Li    Li124        0.4077    0.6284    0.9737
Li    Li125        0.3459    0.6975    0.9153
Li    Li126        0.4665    0.6058    0.9181
Li    Li127        0.2827    0.7648    0.4615
Li    Li128        0.3350    0.7521    0.2839
Li    Li129        0.4132    0.7315    0.7134
Li    Li130        0.3355    0.7582    0.5277
Li    Li131        0.2873    0.7876    0.5831
Li    Li132        0.4649    0.7123    0.6687
Li    Li133        0.3422    0.7855    0.9093
Li    Li134        0.4020    0.8330    0.2145
Li    Li135        0.3284    0.8587    0.0397
Li    Li136        0.2874    0.8883    0.0906
Li    Li137        0.3316    0.8631    0.2891
Li    Li138        0.3337    0.8845    0.4143
Li    Li139        0.2832    0.8632    0.7126
Li    Li140        0.4028    0.8440    0.7118
Li    Li141        0.3353    0.8888    0.6539
Li    Li142        0.3382    0.8870    0.9176
Li    Li143        0.2812    0.8901    0.8395
Li    Li144        0.2922    0.9685    0.2140
Li    Li145        0.3428    0.9838    0.1572
Li    Li146        0.2838    0.9586    0.4535
Li    Li147        0.3319    0.9884    0.4026
Li    Li148        0.2938    0.9600    0.7111
Li    Li149        0.4141    0.9105    0.5922
Li    Li150        0.4139    0.9383    0.9550
Li    Li151        0.4204    0.9086    0.8535
Li    Li152        0.6649    0.0355    0.2166
Li    Li153        0.5909    0.0588    0.0432
Li    Li154        0.5925    0.0948    0.1684
Li    Li155        0.6647    0.0142    0.0764
Li    Li156        0.6676    0.0120    0.3256
Li    Li157        0.5871    0.0601    0.5294
Li    Li158        0.6599    0.0120    0.5831
Li    Li159        0.5298    0.1832    0.0898
Li    Li160        0.5301    0.1664    0.9648
Li    Li161        0.5872    0.1602    0.7899
Li    Li162        0.5828    0.2655    0.0352
Li    Li163        0.5383    0.2871    0.0944
Li    Li164        0.6514    0.2424    0.4575
Li    Li165        0.7231    0.2132    0.4079
Li    Li166        0.5819    0.2599    0.7876
Li    Li167        0.5901    0.2899    0.9240
Li    Li168        0.6570    0.2089    0.8339
Li    Li169        0.6537    0.3319    0.2042
Li    Li170        0.5869    0.3868    0.1465
Li    Li171        0.6605    0.3177    0.0886
Li    Li172        0.7104    0.3396    0.2818
Li    Li173        0.6650    0.3124    0.5931
Li    Li174        0.5262    0.4618    0.2147
Li    Li175        0.5361    0.4832    0.0890
Li    Li176        0.7167    0.4104    0.4187
Li    Li177        0.7231    0.5345    0.0239
Li    Li178        0.5969    0.5680    0.2882
Li    Li179        0.5280    0.5777    0.3532
Li    Li180        0.7128    0.5158    0.6646
Li    Li181        0.5438    0.5620    0.9565
Li    Li182        0.5904    0.5906    0.9152
Li    Li183        0.6585    0.6361    0.2140
Li    Li184        0.5393    0.6913    0.0794
Li    Li185        0.7230    0.6316    0.2708
Li    Li186        0.6632    0.6362    0.4740
Li    Li187        0.5855    0.6630    0.2892
Li    Li188        0.7150    0.6345    0.5312
Li    Li189        0.5835    0.6651    0.5295
Li    Li190        0.7186    0.6108    0.6646
Li    Li191        0.7147    0.6370    0.7949
Li    Li192        0.5886    0.6608    0.7943
Li    Li193        0.6646    0.6112    0.8315
Li    Li194        0.6686    0.7384    0.2146
Li    Li195        0.6608    0.7094    0.5851
Li    Li196        0.5388    0.8606    0.2055
Li    Li197        0.5835    0.8795    0.1438
Li    Li198        0.6557    0.8232    0.0930
Li    Li199        0.5321    0.8863    0.0891
Li    Li200        0.5390    0.8918    0.3466
Li    Li201        0.5796    0.8648    0.5300
Li    Li202        0.6670    0.8031    0.5803
Li    Li203        0.7156    0.8408    0.7864
Li    Li204        0.6607    0.8360    0.9586
Li    Li205        0.5772    0.8627    0.7882
Li    Li206        0.5852    0.8831    0.9114
Li    Li207        0.5892    0.9816    0.1561
Li    Li208        0.5460    0.9884    0.0786
Li    Li209        0.5417    0.9863    0.3273
Li    Li210        0.5338    0.9869    0.8420
Li    Li211        0.7920    0.0673    0.4649
Li    Li212        0.8401    0.0781    0.2740
Li    Li213        0.9677    0.0375    0.5392
Li    Li214        0.9156    0.1324    0.4672
Li    Li215        0.8386    0.1878    0.4167
Li    Li216        0.7989    0.1815    0.8248
Li    Li217        0.9192    0.2437    0.2319
Li    Li218        0.7960    0.2636    0.4693
Li    Li219        0.8395    0.2915    0.4209
Li    Li220        0.9178    0.2277    0.7300
Li    Li221        0.7837    0.3575    0.2146
Li    Li222        0.9151    0.3403    0.4592
Li    Li223        0.9108    0.3099    0.3354
Li    Li224        0.9661    0.3325    0.5361
Li    Li225        0.7839    0.3668    0.7116
Li    Li226        0.8317    0.3900    0.6611
Li    Li227        0.9253    0.3145    0.5850
Li    Li228        0.7869    0.3851    0.5935
Li    Li229        0.8473    0.3629    0.7894
Li    Li230        0.7858    0.3907    0.8325
Li    Li231        0.7844    0.4668    0.2145
Li    Li232        0.8330    0.4686    0.0383
Li    Li233        0.8263    0.4643    0.2957
Li    Li234        0.9164    0.4115    0.3397
Li    Li235        0.9739    0.5178    0.4131
Li    Li236        0.7840    0.6611    0.2155
Li    Li237        0.8405    0.6912    0.4033
Li    Li238        0.9062    0.6105    0.3339
Li    Li239        0.9554    0.6127    0.4072
Li    Li240        0.8453    0.6741    0.5299
Li    Li241        0.8592    0.6893    0.6628
Li    Li242        0.7906    0.6873    0.5849
Li    Li243        0.9094    0.6302    0.9606
Li    Li244        0.8388    0.6618    0.7867
Li    Li245        0.9206    0.6107    0.8370
Li    Li246        0.9678    0.6150    0.9065
Li    Li247        0.7893    0.7581    0.2003
Li    Li248        0.9142    0.7384    0.2067
Li    Li249        0.8378    0.7686    0.1432
Li    Li250        0.9626    0.7166    0.1515
Li    Li251        0.7777    0.7618    0.9585
Li    Li252        0.9105    0.7301    0.9640
Li    Li253        0.8335    0.7623    0.7962
Li    Li254        0.8427    0.7867    0.9182
Li    Li255        0.9083    0.7084    0.8318
Li    Li256        0.7917    0.8631    0.2112
Li    Li257        0.9703    0.8121    0.1674
Li    Li258        0.8315    0.8882    0.6619
Li    Li259        0.9146    0.9390    0.7120
Li    Li260        0.0749    0.0591    0.4358
Li    Li261        0.2055    0.0355    0.4276
Li    Li262        0.0481    0.0647    0.3284
Li    Li263        0.0762    0.0876    0.3050
Li    Li264        0.1769    0.0144    0.4493
Li    Li265        0.2094    0.0430    0.6779
Li    Li266        0.1734    0.0119    0.6948
Li    Li267        0.2016    0.1352    0.1795
Li    Li268        0.0864    0.1889    0.0561
Li    Li269        0.1763    0.1120    0.1988
Li    Li270        0.2040    0.1429    0.4322
Li    Li271        0.0415    0.1806    0.4463
Li    Li272        0.1652    0.1079    0.4495
Li    Li273        0.0271    0.1614    0.5667
Li    Li274        0.0817    0.1873    0.5542
Li    Li275        0.1731    0.1157    0.7035
Li    Li276        0.1612    0.1327    0.8195
Li    Li277        0.2018    0.1148    0.7932
Li    Li278        0.1994    0.2404    0.1757
Li    Li279        0.2070    0.2157    0.0549
Li    Li280        0.2030    0.2345    0.4277
Li    Li281        0.1749    0.2119    0.4416
Li    Li282        0.1764    0.2250    0.5729
Li    Li283        0.0762    0.2662    0.6837
Li    Li284        0.1970    0.2257    0.6783
Li    Li285        0.0305    0.2473    0.5667
Li    Li286        0.0388    0.2842    0.6938
Li    Li287        0.2052    0.2184    0.5491
Li    Li288        0.1569    0.2090    0.6915
Li    Li289        0.1761    0.2359    0.8231
Li    Li290        0.2061    0.2401    0.9324
Li    Li291        0.1786    0.2225    0.9432
Li    Li292        0.1708    0.3407    0.0729
Li    Li293        0.0812    0.3681    0.1778
Li    Li294        0.2046    0.3389    0.1737
Li    Li295        0.2016    0.3136    0.0464
Li    Li296        0.0801    0.3911    0.0534
Li    Li297        0.1681    0.3122    0.1878
Li    Li298        0.1707    0.3378    0.3186
Li    Li299        0.0824    0.3616    0.4311
Li    Li300        0.2048    0.3369    0.4225
Li    Li301        0.0485    0.3591    0.3184
Li    Li302        0.2113    0.3155    0.3100
Li    Li303        0.1744    0.3148    0.4500
Li    Li304        0.1986    0.3367    0.6745
Li    Li305        0.2024    0.3096    0.5572
Li    Li306        0.0753    0.3863    0.5533
Li    Li307        0.1660    0.3380    0.8186
Li    Li308        0.0891    0.3674    0.9297
Li    Li309        0.2012    0.3397    0.9270
Li    Li310        0.0645    0.3698    0.8285
Li    Li311        0.0503    0.3857    0.9496
Li    Li312        0.1697    0.3062    0.9517
Li    Li313        0.1684    0.4416    0.0638
Li    Li314        0.0400    0.4862    0.1927
Li    Li315        0.2037    0.4133    0.0518
Li    Li316        0.1686    0.4075    0.1928
Li    Li317        0.1997    0.4306    0.4311
Li    Li318        0.0354    0.4726    0.3232
Li    Li319        0.0417    0.4912    0.4459
Li    Li320        0.2012    0.4143    0.3104
Li    Li321        0.0793    0.4892    0.2983
Li    Li322        0.1592    0.4084    0.4483
Li    Li323        0.2121    0.4353    0.6836
Li    Li324        0.0405    0.4707    0.5591
Li    Li325        0.1901    0.4121    0.6993
Li    Li326        0.0794    0.4585    0.9221
Li    Li327        0.2054    0.4446    0.9312
Li    Li328        0.0412    0.4540    0.8135
Li    Li329        0.0515    0.4857    0.9374
Li    Li330        0.1703    0.4125    0.9528
Li    Li331        0.0828    0.5640    0.4226
Li    Li332        0.2087    0.5396    0.4227
Li    Li333        0.0457    0.5588    0.3219
Li    Li334        0.0492    0.5897    0.4471
Li    Li335        0.0757    0.5818    0.2985
Li    Li336        0.1735    0.5213    0.4437
Li    Li337        0.1747    0.5340    0.5750
Li    Li338        0.1985    0.5417    0.6852
Li    Li339        0.1982    0.5138    0.5493
Li    Li340        0.1798    0.5367    0.8198
Li    Li341        0.0784    0.5679    0.9294
Li    Li342        0.2048    0.5236    0.9051
Li    Li343        0.0416    0.5687    0.8209
Li    Li344        0.0534    0.5864    0.9508
Li    Li345        0.2068    0.5242    0.8001
Li    Li346        0.0857    0.5870    0.8056
Li    Li347        0.1749    0.6320    0.0724
Li    Li348        0.0799    0.6624    0.1766
Li    Li349        0.0501    0.6964    0.1964
Li    Li350        0.2031    0.6111    0.0511
Li    Li351        0.0806    0.6817    0.0463
Li    Li352        0.1614    0.6448    0.3192
Li    Li353        0.0864    0.6660    0.4282
Li    Li354        0.2030    0.6358    0.4261
Li    Li355        0.0494    0.6648    0.3226
Li    Li356        0.2070    0.6044    0.3045
Li    Li357        0.0795    0.6903    0.3052
Li    Li358        0.1744    0.6147    0.4378
Li    Li359        0.1635    0.6482    0.5403
Li    Li360        0.1980    0.6411    0.9354
Li    Li361        0.0466    0.6669    0.8168
Li    Li362        0.0558    0.6819    0.9495
Li    Li363        0.0779    0.6882    0.7982
Li    Li364        0.1696    0.6009    0.9281
Li    Li365        0.1771    0.7328    0.0687
Li    Li366        0.0507    0.7878    0.2004
Li    Li367        0.2054    0.7039    0.0519
Li    Li368        0.1761    0.7178    0.1976
Li    Li369        0.1761    0.7335    0.3312
Li    Li370        0.2103    0.7426    0.4391
Li    Li371        0.2012    0.7194    0.3012
Li    Li372        0.1639    0.7117    0.4427
Li    Li373        0.0459    0.7799    0.7025
Li    Li374        0.1947    0.7154    0.5488
Li    Li375        0.2005    0.7413    0.9283
Li    Li376        0.0440    0.7607    0.8224
Li    Li377        0.2029    0.7130    0.8001
Li    Li378        0.0732    0.7857    0.8001
Li    Li379        0.1691    0.7104    0.9452
Li    Li380        0.1697    0.8389    0.0598
Li    Li381        0.0783    0.8723    0.1813
Li    Li382        0.0500    0.8665    0.0797
Li    Li383        0.0448    0.8921    0.2045
Li    Li384        0.2034    0.8196    0.0438
Li    Li385        0.0755    0.8854    0.0553
Li    Li386        0.2244    0.8401    0.4308
Li    Li387        0.1799    0.8459    0.5713
Li    Li388        0.0458    0.8544    0.5710
Li    Li389        0.0825    0.8916    0.5570
Li    Li390        0.1649    0.8098    0.6941
Li    Li391        0.2056    0.8320    0.9267
Li    Li392        0.2098    0.8073    0.8044
Li    Li393        0.1663    0.9443    0.0576
Li    Li394        0.2025    0.9299    0.1811
Li    Li395        0.0512    0.9655    0.0725
Li    Li396        0.0702    0.9855    0.0575
Li    Li397        0.1694    0.9379    0.3188
Li    Li398        0.0853    0.9701    0.4305
Li    Li399        0.2018    0.9351    0.4266
Li    Li400        0.0516    0.9594    0.3180
Li    Li401        0.0444    0.9830    0.4471
Li    Li402        0.0838    0.9747    0.2934
Li    Li403        0.1858    0.9136    0.4418
Li    Li404        0.0785    0.9605    0.6865
Li    Li405        0.2053    0.9433    0.6819
Li    Li406        0.1684    0.9151    0.7070
Li    Li407        0.1751    0.9387    0.8175
Li    Li408        0.2018    0.9290    0.9275
Li    Li409        0.2040    0.9131    0.7957
Li    Li410        0.0776    0.9859    0.7980
Li    Li411        0.4125    0.0416    0.0670
Li    Li412        0.4512    0.0183    0.0489
Li    Li413        0.4269    0.0303    0.3183
Li    Li414        0.3294    0.0642    0.4255
Li    Li415        0.4545    0.0384    0.4321
Li    Li416        0.4639    0.0054    0.3044
Li    Li417        0.4251    0.0155    0.4526
Li    Li418        0.4503    0.0097    0.5504
Li    Li419        0.2910    0.0637    0.8198
Li    Li420        0.3381    0.0861    0.8085
Li    Li421        0.3280    0.1618    0.1827
Li    Li422        0.4645    0.1376    0.1809
Li    Li423        0.3080    0.1950    0.1971
Li    Li424        0.4565    0.1190    0.0441
Li    Li425        0.4178    0.1132    0.1966
Li    Li426        0.4623    0.1336    0.4307
Li    Li427        0.4569    0.1168    0.3098
Li    Li428        0.3262    0.1835    0.3053
Li    Li429        0.3192    0.1572    0.6815
Li    Li430        0.4135    0.1466    0.8001
Li    Li431        0.4546    0.1405    0.9346
Li    Li432        0.4497    0.1151    0.7979
Li    Li433        0.3395    0.1866    0.8068
Li    Li434        0.4187    0.1121    0.9502
Li    Li435        0.3309    0.2586    0.1742
Li    Li436        0.4492    0.2332    0.1760
Li    Li437        0.3043    0.2630    0.0712
Li    Li438        0.3199    0.2899    0.1968
Li    Li439        0.4540    0.2164    0.0470
Li    Li440        0.3284    0.2864    0.0483
Li    Li441        0.4243    0.2205    0.1968
Li    Li442        0.4252    0.2371    0.3218
Li    Li443        0.4500    0.2196    0.2943
Li    Li444        0.4527    0.2334    0.6883
Li    Li445        0.4195    0.2236    0.6899
Li    Li446        0.4310    0.2284    0.8123
Li    Li447        0.3261    0.2541    0.9401
Li    Li448        0.2898    0.2603    0.8231
Li    Li449        0.2982    0.2875    0.9514
Li    Li450        0.4556    0.2212    0.8003
Li    Li451        0.3313    0.2817    0.8029
Li    Li452        0.4176    0.2134    0.9598
Li    Li453        0.4227    0.3373    0.0785
Li    Li454        0.3307    0.3679    0.1723
Li    Li455        0.4559    0.3421    0.1805
Li    Li456        0.2972    0.3632    0.0756
Li    Li457        0.3017    0.3744    0.1986
Li    Li458        0.4463    0.3183    0.0529
Li    Li459        0.3338    0.3859    0.0566
Li    Li460        0.4112    0.3092    0.1934
Li    Li461        0.3158    0.3643    0.4311
Li    Li462        0.2996    0.3819    0.4503
Li    Li463        0.4541    0.3153    0.3000
Li    Li464        0.3282    0.3605    0.6696
Li    Li465        0.2855    0.3602    0.5673
Li    Li466        0.2954    0.3900    0.6922
Li    Li467        0.4227    0.3386    0.8222
Li    Li468        0.4504    0.3416    0.9308
Li    Li469        0.4494    0.3203    0.8056
Li    Li470        0.3310    0.3858    0.8047
Li    Li471        0.4161    0.3136    0.9477
Li    Li472        0.3327    0.4619    0.1728
Li    Li473        0.4562    0.4391    0.1892
Li    Li474        0.2989    0.4667    0.0699
Li    Li475        0.2986    0.4876    0.1935
Li    Li476        0.4325    0.4134    0.1936
Li    Li477        0.2911    0.4679    0.3195
Li    Li478        0.3234    0.4567    0.6835
Li    Li479        0.4236    0.4073    0.6954
Li    Li480        0.4082    0.4410    0.8129
Li    Li481        0.2865    0.4540    0.8139
Li    Li482        0.2923    0.4899    0.9513
Li    Li483        0.4557    0.4134    0.7994
Li    Li484        0.4166    0.5304    0.0753
Li    Li485        0.4589    0.5332    0.1889
Li    Li486        0.3005    0.5694    0.0718
Li    Li487        0.4542    0.5157    0.0523
Li    Li488        0.3281    0.5797    0.0574
Li    Li489        0.4168    0.5152    0.1945
Li    Li490        0.4184    0.5378    0.3209
Li    Li491        0.4545    0.5136    0.2944
Li    Li492        0.2925    0.5594    0.5692
Li    Li493        0.3265    0.5903    0.5503
Li    Li494        0.3275    0.5623    0.9261
Li    Li495        0.4589    0.5340    0.9486
Li    Li496        0.2963    0.5721    0.9480
Li    Li497        0.4219    0.5170    0.9501
Li    Li498        0.4260    0.6405    0.0728
Li    Li499        0.3343    0.6675    0.1841
Li    Li500        0.4510    0.6392    0.1816
Li    Li501        0.2914    0.6582    0.0730
Li    Li502        0.2972    0.6887    0.1914
Li    Li503        0.4565    0.6151    0.0504
Li    Li504        0.3294    0.6901    0.0540
Li    Li505        0.4281    0.6314    0.3135
Li    Li506        0.3307    0.6632    0.4341
Li    Li507        0.2887    0.6892    0.4522
Li    Li508        0.4646    0.6120    0.3074
Li    Li509        0.4241    0.6064    0.4498
Li    Li510        0.4208    0.6363    0.5737
Li    Li511        0.3327    0.6660    0.6792
Li    Li512        0.2975    0.6977    0.6958
Li    Li513        0.4567    0.6122    0.5538
Li    Li514        0.3258    0.6899    0.5532
Li    Li515        0.3405    0.6632    0.9296
Li    Li516        0.4541    0.6360    0.9258
Li    Li517        0.3008    0.6863    0.9382
Li    Li518        0.4703    0.6041    0.8018
Li    Li519        0.4162    0.6146    0.9412
Li    Li520        0.4058    0.7485    0.0607
Li    Li521        0.3332    0.7643    0.1802
Li    Li522        0.2992    0.7924    0.1980
Li    Li523        0.3313    0.7851    0.0539
Li    Li524        0.4185    0.7133    0.2043
Li    Li525        0.4136    0.7346    0.3156
Li    Li526        0.3244    0.7690    0.4295
Li    Li527        0.3031    0.7682    0.3221
Li    Li528        0.3170    0.7879    0.3123
Li    Li529        0.4121    0.7368    0.5725
Li    Li530        0.4552    0.7412    0.6685
Li    Li531        0.2901    0.7585    0.5720
Li    Li532        0.4550    0.7057    0.5581
Li    Li533        0.3250    0.7941    0.5564
Li    Li534        0.4207    0.7123    0.7020
Li    Li535        0.3254    0.7607    0.9204
Li    Li536        0.2972    0.7614    0.8231
Li    Li537        0.2881    0.7910    0.9405
Li    Li538        0.4551    0.7170    0.8064
Li    Li539        0.3276    0.7906    0.8034
Li    Li540        0.4284    0.8407    0.0635
Li    Li541        0.3413    0.8808    0.1669
Li    Li542        0.2931    0.8662    0.0682
Li    Li543        0.4518    0.8114    0.0514
Li    Li544        0.3262    0.8884    0.0588
Li    Li545        0.3278    0.8591    0.4307
Li    Li546        0.4559    0.8314    0.4324
Li    Li547        0.2904    0.8591    0.3220
Li    Li548        0.2903    0.8860    0.4499
Li    Li549        0.3230    0.8900    0.3051
Li    Li550        0.4204    0.8112    0.4566
Li    Li551        0.3286    0.8674    0.6760
Li    Li552        0.4560    0.8398    0.6807
Li    Li553        0.2966    0.8888    0.6959
Li    Li554        0.4562    0.8162    0.5598
Li    Li555        0.3248    0.8890    0.5566
Li    Li556        0.4155    0.8098    0.6985
Li    Li557        0.3334    0.8603    0.9188
Li    Li558        0.4670    0.8422    0.9331
Li    Li559        0.2966    0.8849    0.9501
Li    Li560        0.4562    0.8031    0.8094
Li    Li561        0.4259    0.9384    0.0630
Li    Li562        0.3326    0.9581    0.1847
Li    Li563        0.3033    0.9832    0.1986
Li    Li564        0.4198    0.9252    0.3192
Li    Li565        0.3272    0.9619    0.4253
Li    Li566        0.2923    0.9615    0.3242
Li    Li567        0.2945    0.9874    0.4546
Li    Li568        0.4619    0.9093    0.3065
Li    Li569        0.3298    0.9882    0.3021
Li    Li570        0.4219    0.9302    0.5804
Li    Li571        0.3276    0.9597    0.6828
Li    Li572        0.4606    0.9399    0.6788
Li    Li573        0.4529    0.9144    0.5456
Li    Li574        0.4193    0.9140    0.6915
Li    Li575        0.4189    0.9377    0.8247
Li    Li576        0.3316    0.9657    0.9248
Li    Li577        0.4523    0.9349    0.9221
Li    Li578        0.2931    0.9582    0.8246
Li    Li579        0.2933    0.9865    0.9396
Li    Li580        0.4553    0.9118    0.7989
Li    Li581        0.3284    0.9864    0.8100
Li    Li582        0.5799    0.0633    0.1829
Li    Li583        0.7055    0.0374    0.1738
Li    Li584        0.5514    0.0647    0.0716
Li    Li585        0.5762    0.0797    0.0380
Li    Li586        0.6670    0.0051    0.1828
Li    Li587        0.6671    0.0443    0.3200
Li    Li588        0.5430    0.0598    0.3247
Li    Li589        0.6990    0.0107    0.3102
Li    Li590        0.6530    0.0493    0.5601
Li    Li591        0.6703    0.1334    0.0720
Li    Li592        0.5508    0.1633    0.0802
Li    Li593        0.5771    0.1835    0.0490
Li    Li594        0.6817    0.1235    0.3155
Li    Li595        0.5648    0.1564    0.4301
Li    Li596        0.5573    0.1978    0.4400
Li    Li597        0.5476    0.1625    0.8235
Li    Li598        0.5788    0.2557    0.1764
Li    Li599        0.5459    0.2625    0.0714
Li    Li600        0.5847    0.2916    0.0436
Li    Li601        0.7033    0.2387    0.4263
Li    Li602        0.5418    0.2575    0.3176
Li    Li603        0.6731    0.2203    0.4291
Li    Li604        0.6787    0.2477    0.5692
Li    Li605        0.6744    0.2425    0.8259
Li    Li606        0.5762    0.2720    0.9373
Li    Li607        0.5470    0.2670    0.8205
Li    Li608        0.5448    0.2882    0.9489
Li    Li609        0.7012    0.2197    0.8044
Li    Li610        0.6592    0.3395    0.0704
Li    Li611        0.5832    0.3626    0.1784
Li    Li612        0.6904    0.3346    0.1848
Li    Li613        0.5425    0.3853    0.2032
Li    Li614        0.7030    0.3120    0.0528
Li    Li615        0.6684    0.3127    0.1931
Li    Li616        0.6761    0.3370    0.3225
Li    Li617        0.6989    0.3091    0.3138
Li    Li618        0.6705    0.3405    0.5696
Li    Li619        0.7101    0.3295    0.6796
Li    Li620        0.7127    0.3038    0.5617
Li    Li621        0.5498    0.4626    0.0692
Li    Li622        0.5650    0.4973    0.0598
Li    Li623        0.7007    0.4437    0.4304
Li    Li624        0.7062    0.4147    0.2951
Li    Li625        0.6753    0.4063    0.4458
Li    Li626        0.5721    0.4754    0.9299
Li    Li627        0.7074    0.4398    0.9390
Li    Li628        0.6551    0.5383    0.0624
Li    Li629        0.7000    0.5362    0.1851
Li    Li630        0.5422    0.5875    0.1942
Li    Li631        0.6773    0.5217    0.1927
Li    Li632        0.5831    0.5684    0.4290
Li    Li633        0.5547    0.5604    0.3226
Li    Li634        0.5447    0.5912    0.4397
Li    Li635        0.5788    0.5813    0.3020
Li    Li636        0.5488    0.5587    0.5740
Li    Li637        0.5815    0.5881    0.5496
Li    Li638        0.6691    0.5119    0.7032
Li    Li639        0.6760    0.5336    0.8261
Li    Li640        0.5922    0.5586    0.9339
Li    Li641        0.5439    0.5603    0.8261
Li    Li642        0.5383    0.5936    0.9475
Li    Li643        0.7115    0.5160    0.7995
Li    Li644        0.6744    0.5065    0.9314
Li    Li645        0.6669    0.6422    0.0606
Li    Li646        0.7011    0.6406    0.1821
Li    Li647        0.5384    0.6856    0.2017
Li    Li648        0.5793    0.6934    0.0553
Li    Li649        0.6761    0.6206    0.1893
Li    Li650        0.6702    0.6359    0.3265
Li    Li651        0.5756    0.6667    0.4308
Li    Li652        0.7006    0.6378    0.4324
Li    Li653        0.5528    0.6569    0.3113
Li    Li654        0.5382    0.6846    0.4459
Li    Li655        0.5768    0.6902    0.3074
Li    Li656        0.6678    0.6387    0.5761
Li    Li657        0.7042    0.6402    0.6677
Li    Li658        0.5496    0.6703    0.5731
Li    Li659        0.6976    0.6102    0.5558
Li    Li660        0.5841    0.6887    0.5523
Li    Li661        0.6656    0.6365    0.8140
Li    Li662        0.7137    0.6346    0.9300
Li    Li663        0.5424    0.6747    0.8203
Li    Li664        0.7070    0.6099    0.8003
Li    Li665        0.6709    0.7350    0.0770
Li    Li666        0.7052    0.7314    0.1778
Li    Li667        0.7051    0.7034    0.0562
Li    Li668        0.6594    0.7471    0.5739
Li    Li669        0.5705    0.7690    0.6826
Li    Li670        0.5451    0.7600    0.5712
Li    Li671        0.5757    0.7722    0.9065
Li    Li672        0.5485    0.7592    0.8158
Li    Li673        0.5534    0.7813    0.9386
Li    Li674        0.5711    0.7887    0.8104
Li    Li675        0.6668    0.7108    0.9536
Li    Li676        0.6723    0.8340    0.0736
Li    Li677        0.5816    0.8736    0.1767
Li    Li678        0.5454    0.8557    0.0819
Li    Li679        0.5457    0.8886    0.1898
Li    Li680        0.7002    0.8090    0.0584
Li    Li681        0.5452    0.8845    0.4538
Li    Li682        0.6618    0.8210    0.5471
Li    Li683        0.7102    0.8381    0.6785
Li    Li684        0.5453    0.8597    0.5654
Li    Li685        0.5483    0.8851    0.7017
Li    Li686        0.6992    0.8202    0.5496
Li    Li687        0.6739    0.8159    0.7043
Li    Li688        0.6699    0.8364    0.8234
Li    Li689        0.5608    0.8504    0.9311
Li    Li690        0.7048    0.8404    0.9256
Li    Li691        0.5531    0.8674    0.8238
Li    Li692        0.5381    0.8918    0.9468
Li    Li693        0.7100    0.8115    0.8098
Li    Li694        0.5739    0.8927    0.8144
Li    Li695        0.6712    0.8044    0.9420
Li    Li696        0.5846    0.9558    0.1731
Li    Li697        0.5465    0.9817    0.2013
Li    Li698        0.5787    0.9924    0.0521
Li    Li699        0.6745    0.9156    0.1957
Li    Li700        0.5848    0.9616    0.4279
Li    Li701        0.5494    0.9682    0.3079
Li    Li702        0.5813    0.9869    0.3061
Li    Li703        0.7008    0.9148    0.5532
Li    Li704        0.5832    0.9894    0.5495
Li    Li705        0.5818    0.9638    0.9387
Li    Li706        0.7029    0.9377    0.9302
Li    Li707        0.5384    0.9881    0.9510
Li    Li708        0.6732    0.9110    0.9352
Li    Li709        0.8323    0.0732    0.4334
Li    Li710        0.9519    0.0376    0.4305
Li    Li711        0.7907    0.0921    0.4555
Li    Li712        0.9500    0.0183    0.3043
Li    Li713        0.8310    0.0906    0.3073
Li    Li714        0.9193    0.0407    0.5666
Li    Li715        0.9157    0.0094    0.6987
Li    Li716        0.8281    0.1605    0.1807
Li    Li717        0.9178    0.1102    0.1966
Li    Li718        0.9130    0.1529    0.3222
Li    Li719        0.8098    0.1553    0.4369
Li    Li720        0.9463    0.1327    0.4336
Li    Li721        0.7991    0.1627    0.3262
Li    Li722        0.7939    0.1709    0.4506
Li    Li723        0.9116    0.1003    0.4317
Li    Li724        0.9255    0.1354    0.5728
Li    Li725        0.9672    0.1104    0.5555
Li    Li726        0.8303    0.1895    0.5544
Li    Li727        0.8283    0.1909    0.8037
Li    Li728        0.8334    0.2594    0.1861
Li    Li729        0.9166    0.2091    0.1964
Li    Li730        0.9255    0.2367    0.3211
Li    Li731        0.7813    0.2903    0.4477
Li    Li732        0.9559    0.2069    0.3080
Li    Li733        0.8251    0.2804    0.3012
Li    Li734        0.8273    0.2709    0.6717
Li    Li735        0.9670    0.2474    0.6884
Li    Li736        0.7999    0.2665    0.5765
Li    Li737        0.7973    0.2901    0.6987
Li    Li738        0.8248    0.2935    0.5660
Li    Li739        0.9225    0.2155    0.6992
Li    Li740        0.7997    0.2598    0.8187
Li    Li741        0.8295    0.2886    0.7970
Li    Li742        0.8252    0.3664    0.1759
Li    Li743        0.7965    0.3904    0.2004
Li    Li744        0.9163    0.3170    0.1958
Li    Li745        0.9162    0.3460    0.3153
Li    Li746        0.7905    0.3632    0.3262
Li    Li747        0.7974    0.3880    0.4505
Li    Li748        0.9244    0.3158    0.4442
Li    Li749        0.9268    0.3411    0.5599
Li    Li750        0.8257    0.3632    0.6802
Li    Li751        0.7982    0.3686    0.5751
Li    Li752        0.9659    0.3145    0.5552
Li    Li753        0.8287    0.3867    0.5512
Li    Li754        0.9195    0.3422    0.8185
Li    Li755        0.8226    0.3683    0.9265
Li    Li756        0.7991    0.3560    0.8186
Li    Li757        0.7828    0.3907    0.9471
Li    Li758        0.8244    0.3900    0.8053
Li    Li759        0.8301    0.4926    0.0560
Li    Li760        0.9224    0.4165    0.1958
Li    Li761        0.9232    0.4327    0.3260
Li    Li762        0.9565    0.4395    0.4432
Li    Li763        0.7938    0.4695    0.3225
Li    Li764        0.9632    0.4017    0.3137
Li    Li765        0.8375    0.4517    0.6899
Li    Li766        0.7974    0.4864    0.6962
Li    Li767        0.8243    0.4683    0.9348
Li    Li768        0.9536    0.4393    0.9357
Li    Li769        0.7954    0.4646    0.8164
Li    Li770        0.7950    0.4866    0.9567
Li    Li771        0.9198    0.4173    0.9482
Li    Li772        0.8022    0.5588    0.0711
Li    Li773        0.9211    0.5388    0.3166
Li    Li774        0.9592    0.5131    0.2991
Li    Li775        0.7799    0.5942    0.6984
Li    Li776        0.8438    0.5648    0.9325
Li    Li777        0.9078    0.5040    0.9420
Li    Li778        0.9091    0.6442    0.0677
Li    Li779        0.8303    0.6634    0.1742
Li    Li780        0.9479    0.6458    0.1770
Li    Li781        0.7984    0.6891    0.1873
Li    Li782        0.9575    0.6093    0.0519
Li    Li783        0.9162    0.6152    0.2005
Li    Li784        0.8378    0.6630    0.4265
Li    Li785        0.9550    0.6368    0.4253
Li    Li786        0.8008    0.6858    0.4503
Li    Li787        0.9476    0.6325    0.3021
Li    Li788        0.8356    0.6843    0.3040
Li    Li789        0.9194    0.6125    0.4499
Li    Li790        0.7968    0.6611    0.5687
Li    Li791        0.8362    0.6892    0.5690
Li    Li792        0.9146    0.6364    0.8204
Li    Li793        0.9566    0.6327    0.9267
Li    Li794        0.8017    0.6646    0.8194
Li    Li795        0.9532    0.6088    0.8117
Li    Li796        0.8333    0.6919    0.8048
Li    Li797        0.9168    0.6132    0.9459
Li    Li798        0.8377    0.7595    0.1735
Li    Li799        0.7922    0.7622    0.0728
Li    Li800        0.7829    0.7844    0.1918
Li    Li801        0.9518    0.7103    0.0569
Li    Li802        0.9148    0.7131    0.1959
Li    Li803        0.9609    0.7151    0.3054
Li    Li804        0.9205    0.7403    0.5761
Li    Li805        0.8333    0.7595    0.6820
Li    Li806        0.9524    0.7331    0.6849
Li    Li807        0.9545    0.7130    0.5607
Li    Li808        0.8236    0.7912    0.5501
Li    Li809        0.9227    0.7138    0.6964
Li    Li810        0.9132    0.7362    0.8159
Li    Li811        0.8298    0.7613    0.9268
Li    Li812        0.9508    0.7255    0.9284
Li    Li813        0.7972    0.7592    0.8166
Li    Li814        0.8006    0.7924    0.9445
Li    Li815        0.9543    0.7048    0.8000
Li    Li816        0.9040    0.7096    0.9379
Li    Li817        0.9252    0.8451    0.0689
Li    Li818        0.8283    0.8671    0.1768
Li    Li819        0.9538    0.8367    0.1788
Li    Li820        0.9588    0.8152    0.0507
Li    Li821        0.9149    0.8089    0.1926
Li    Li822        0.8025    0.8570    0.3256
Li    Li823        0.8355    0.8895    0.3026
Li    Li824        0.9285    0.8439    0.5694
Li    Li825        0.8265    0.8630    0.6720
Li    Li826        0.7953    0.8639    0.5793
Li    Li827        0.8010    0.8798    0.6936
Li    Li828        0.9579    0.8029    0.5582
Li    Li829        0.9211    0.8077    0.6956
Li    Li830        0.9528    0.9145    0.0473
Li    Li831        0.9456    0.9293    0.6745
Li    Li832        0.9301    0.9181    0.7018
Li    Li833        0.1216    0.0645    0.4387
Li    Li834        0.9800    0.0573    0.3330
Li    Li835        0.1182    0.0816    0.2938
Li    Li836        0.1319    0.0214    0.4521
Li    Li837        0.1533    0.9996    0.6868
Li    Li838        0.2454    0.1449    0.1727
Li    Li839        0.0110    0.1743    0.4560
Li    Li840        0.2383    0.1118    0.2981
Li    Li841        0.1334    0.1202    0.4715
Li    Li842        0.2353    0.1425    0.6792
Li    Li843        0.2397    0.1131    0.7996
Li    Li844        0.2321    0.2451    0.1836
Li    Li845        0.2388    0.2095    0.0642
Li    Li846        0.1559    0.2735    0.4369
Li    Li847        0.1339    0.2148    0.4370
Li    Li848        0.1119    0.2605    0.6922
Li    Li849        0.2228    0.2374    0.6841
Li    Li850        0.1339    0.2142    0.6943
Li    Li851        0.1426    0.2491    0.8193
Li    Li852        0.1156    0.2798    0.8169
Li    Li853        0.1440    0.2062    0.9336
Li    Li854        0.2418    0.3435    0.1934
Li    Li855        0.2467    0.3155    0.0534
Li    Li856        0.1138    0.3851    0.0414
Li    Li857        0.1345    0.3156    0.1929
Li    Li858        0.1303    0.3330    0.3171
Li    Li859        0.1196    0.3733    0.4169
Li    Li860        0.0106    0.3476    0.3027
Li    Li861        0.0093    0.3845    0.4442
Li    Li862        0.1198    0.3873    0.3185
Li    Li863        0.2347    0.3444    0.6887
Li    Li864        0.2320    0.3272    0.5655
Li    Li865        0.2425    0.3240    0.9488
Li    Li866        0.1346    0.3167    0.9475
Li    Li867        0.2369    0.4404    0.1777
Li    Li868        0.1318    0.4205    0.2051
Li    Li869        0.1197    0.4608    0.4300
Li    Li870        0.1311    0.4141    0.4303
Li    Li871        0.1273    0.4493    0.5577
Li    Li872        0.0212    0.4522    0.5573
Li    Li873        0.1343    0.4077    0.6762
Li    Li874        0.1147    0.4640    0.9217
Li    Li875        0.2604    0.4517    0.9312
Li    Li876        0.0195    0.4727    0.8556
Li    Li877        0.0137    0.4932    0.9366
Li    Li878        0.1255    0.5076    0.2057
Li    Li879        0.1074    0.5848    0.4165
Li    Li880        0.2602    0.5422    0.4246
Li    Li881        0.0213    0.5542    0.3149
Li    Li882        0.0106    0.5836    0.4416
Li    Li883        0.1343    0.5158    0.4354
Li    Li884        0.2399    0.5395    0.6780
Li    Li885        0.2392    0.5108    0.5743
Li    Li886        0.1326    0.5315    0.8317
Li    Li887        0.0103    0.5873    0.9467
Li    Li888        0.1338    0.6582    0.0514
Li    Li889        0.1325    0.6295    0.3515
Li    Li890        0.0046    0.6601    0.3079
Li    Li891        0.1204    0.6930    0.2952
Li    Li892        0.9952    0.6708    0.8192
Li    Li893        0.0228    0.6811    0.9373
Li    Li894        0.1243    0.6835    0.7970
Li    Li895        0.1208    0.6008    0.9388
Li    Li896        0.9980    0.7839    0.1869
Li    Li897        0.2438    0.7160    0.0642
Li    Li898        0.1261    0.7146    0.1886
Li    Li899        0.2443    0.7167    0.2961
Li    Li900        0.1384    0.7107    0.4445
Li    Li901        0.1136    0.7647    0.6768
Li    Li902        0.1234    0.7195    0.7024
Li    Li903        0.2439    0.7405    0.9232
Li    Li904        0.1311    0.8365    0.0517
Li    Li905        0.0280    0.8507    0.0617
Li    Li906        0.1252    0.8871    0.0709
Li    Li907        0.2465    0.8270    0.9244
Li    Li908        0.1323    0.9321    0.0558
Li    Li909        0.0024    0.9602    0.0733
Li    Li910        0.1352    0.9308    0.2987
Li    Li911        0.1394    0.9157    0.4438
Li    Li912        0.1102    0.9632    0.6812
Li    Li913        0.1307    0.9107    0.6756
Li    Li914        0.1485    0.9474    0.8213
Li    Li915        0.1170    0.9852    0.8128
Li    Li916        0.3808    0.0419    0.0711
Li    Li917        0.2524    0.0922    0.1865
Li    Li918        0.3833    0.0423    0.3230
Li    Li919        0.3659    0.0697    0.4349
Li    Li920        0.3791    0.0140    0.4248
Li    Li921        0.5019    0.0155    0.5687
Li    Li922        0.2474    0.0591    0.8205
Li    Li923        0.3654    0.1597    0.1839
Li    Li924        0.4901    0.1124    0.0611
Li    Li925        0.4969    0.1458    0.4491
Li    Li926        0.2573    0.1627    0.3053
Li    Li927        0.2595    0.1911    0.4331
Li    Li928        0.3742    0.1864    0.3051
Li    Li929        0.3684    0.1019    0.4438
Li    Li930        0.3709    0.1651    0.6719
Li    Li931        0.2573    0.1796    0.6913
Li    Li932        0.3903    0.1209    0.8026
Li    Li933        0.2499    0.1681    0.8149
Li    Li934        0.3915    0.1891    0.8104
Li    Li935        0.3939    0.1008    0.9364
Li    Li936        0.3671    0.2470    0.1929
Li    Li937        0.4834    0.2321    0.1529
Li    Li938        0.2687    0.2667    0.0649
Li    Li939        0.4984    0.2179    0.2889
Li    Li940        0.3773    0.2207    0.7060
Li    Li941        0.3827    0.2344    0.7994
Li    Li942        0.4789    0.2467    0.9364
Li    Li943        0.2462    0.2853    0.9565
Li    Li944        0.3640    0.2890    0.8174
Li    Li945        0.3871    0.2153    0.9463
Li    Li946        0.3737    0.3478    0.0658
Li    Li947        0.3659    0.3669    0.1707
Li    Li948        0.2554    0.3858    0.1878
Li    Li949        0.3645    0.3773    0.0621
Li    Li950        0.2573    0.3637    0.5636
Li    Li951        0.2615    0.3890    0.6998
Li    Li952        0.4953    0.3350    0.9224
Li    Li953        0.4924    0.4414    0.1794
Li    Li954        0.2683    0.4622    0.0685
Li    Li955        0.2510    0.4713    0.3328
Li    Li956        0.3692    0.4805    0.3200
Li    Li957        0.3843    0.4126    0.6947
Li    Li958        0.2590    0.4652    0.8130
Li    Li959        0.3745    0.5322    0.0669
Li    Li960        0.4943    0.5318    0.1692
Li    Li961        0.2587    0.5615    0.0737
Li    Li962        0.4994    0.5162    0.0424
Li    Li963        0.3675    0.5904    0.0474
Li    Li964        0.3666    0.5590    0.9448
Li    Li965        0.3771    0.6277    0.0702
Li    Li966        0.2323    0.6622    0.0855
Li    Li967        0.2475    0.6875    0.1953
Li    Li968        0.3875    0.6899    0.0449
Li    Li969        0.3834    0.6139    0.2221
Li    Li970        0.3655    0.6612    0.4303
Li    Li971        0.2590    0.6927    0.4299
Li    Li972        0.4918    0.6306    0.3057
Li    Li973        0.3828    0.6420    0.5693
Li    Li974        0.3749    0.6769    0.6839
Li    Li975        0.3626    0.6540    0.9247
Li    Li976        0.4824    0.6433    0.9463
Li    Li977        0.2745    0.7066    0.9288
Li    Li978        0.4922    0.6121    0.8118
Li    Li979        0.3775    0.6153    0.9528
Li    Li980        0.3812    0.7416    0.0780
Li    Li981        0.4825    0.7032    0.0531
Li    Li982        0.3779    0.7881    0.0503
Li    Li983        0.3787    0.7328    0.3068
Li    Li984        0.2745    0.7487    0.3100
Li    Li985        0.2535    0.7511    0.5674
Li    Li986        0.3630    0.7920    0.5634
Li    Li987        0.3750    0.7016    0.6846
Li    Li988        0.2557    0.7579    0.8167
Li    Li989        0.3660    0.7866    0.7965
Li    Li990        0.3820    0.8351    0.0612
Li    Li991        0.3699    0.8587    0.1833
Li    Li992        0.3630    0.8649    0.4175
Li    Li993        0.2525    0.8563    0.3305
Li    Li994        0.2505    0.8838    0.4412
Li    Li995        0.3880    0.8186    0.4373
Li    Li996        0.3643    0.8607    0.6884
Li    Li997        0.5077    0.8386    0.6850
Li    Li998        0.3733    0.8847    0.5670
Li    Li999        0.4915    0.8390    0.9345
Li    Li1000        0.2593    0.8566    0.8187
Li    Li1001        0.4968    0.8171    0.7855
Li    Li1002        0.3825    0.9359    0.0664
Li    Li1003        0.3655    0.9577    0.1894
Li    Li1004        0.2612    0.9876    0.2110
Li    Li1005        0.3865    0.9320    0.3422
Li    Li1006        0.3670    0.9606    0.4259
Li    Li1007        0.2507    0.9884    0.4297
Li    Li1008        0.4985    0.9145    0.3195
Li    Li1009        0.3765    0.9862    0.3136
Li    Li1010        0.3897    0.9402    0.5562
Li    Li1011        0.3672    0.9627    0.6927
Li    Li1012        0.4952    0.9346    0.6939
Li    Li1013        0.3722    0.9099    0.6922
Li    Li1014        0.4937    0.9349    0.9226
Li    Li1015        0.2637    0.9935    0.9352
Li    Li1016        0.5003    0.9129    0.8007
Li    Li1017        0.3809    0.9228    0.9317
Li    Li1018        0.5074    0.0682    0.0727
Li    Li1019        0.7410    0.0175    0.0638
Li    Li1020        0.6000    0.0966    0.0660
Li    Li1021        0.6329    0.0087    0.1897
Li    Li1022        0.6272    0.0398    0.3242
Li    Li1023        0.5038    0.0656    0.3287
Li    Li1024        0.6093    0.0934    0.3100
Li    Li1025        0.7431    0.0268    0.6963
Li    Li1026        0.7463    0.0140    0.5534
Li    Li1027        0.7556    0.1469    0.1791
Li    Li1028        0.5084    0.1807    0.1771
Li    Li1029        0.6134    0.1866    0.0674
Li    Li1030        0.6140    0.1692    0.4273
Li    Li1031        0.5069    0.1879    0.4489
Li    Li1032        0.6237    0.3047    0.0793
Li    Li1033        0.5017    0.2558    0.3205
Li    Li1034        0.6227    0.2153    0.4556
Li    Li1035        0.6176    0.2459    0.8156
Li    Li1036        0.4768    0.2997    0.9500
Li    Li1037        0.7384    0.2140    0.8181
Li    Li1038        0.6329    0.3629    0.1943
Li    Li1039        0.7457    0.3368    0.1837
Li    Li1040        0.5079    0.3865    0.1904
Li    Li1041        0.6316    0.3129    0.1904
Li    Li1042        0.7442    0.3392    0.6687
Li    Li1043        0.7489    0.3155    0.5724
Li    Li1044        0.5083    0.4856    0.2019
Li    Li1045        0.6182    0.4902    0.0494
Li    Li1046        0.7445    0.4139    0.3085
Li    Li1047        0.6178    0.4687    0.9269
Li    Li1048        0.7461    0.4356    0.9123
Li    Li1049        0.6169    0.5439    0.0791
Li    Li1050        0.7472    0.5387    0.1860
Li    Li1051        0.5089    0.5819    0.1980
Li    Li1052        0.6060    0.5800    0.0236
Li    Li1053        0.6336    0.5217    0.2035
Li    Li1054        0.6234    0.5906    0.2979
Li    Li1055        0.6302    0.5367    0.8133
Li    Li1056        0.6181    0.5577    0.9311
Li    Li1057        0.7428    0.5191    0.8014
Li    Li1058        0.6353    0.5056    0.9296
Li    Li1059        0.6281    0.6279    0.0871
Li    Li1060        0.6029    0.6552    0.1877
Li    Li1061        0.7470    0.6374    0.1746
Li    Li1062        0.6108    0.6381    0.3228
Li    Li1063        0.6225    0.6599    0.4379
Li    Li1064        0.5019    0.6650    0.2878
Li    Li1065        0.5064    0.6844    0.4373
Li    Li1066        0.6146    0.6819    0.2772
Li    Li1067        0.6478    0.6444    0.5600
Li    Li1068        0.7416    0.6283    0.6901
Li    Li1069        0.4857    0.6674    0.5696
Li    Li1070        0.6341    0.6975    0.5478
Li    Li1071        0.6464    0.6502    0.8101
Li    Li1072        0.7575    0.6425    0.9300
Li    Li1073        0.5227    0.6547    0.8065
Li    Li1074        0.6332    0.7338    0.0732
Li    Li1075        0.7421    0.7134    0.0552
Li    Li1076        0.5068    0.7608    0.5699
Li    Li1077        0.4989    0.7669    0.8164
Li    Li1078        0.5043    0.7755    0.9542
Li    Li1079        0.5093    0.8574    0.0705
Li    Li1080        0.5094    0.8922    0.1824
Li    Li1081        0.6350    0.8399    0.5777
Li    Li1082        0.5056    0.8580    0.5732
Li    Li1083        0.7432    0.8250    0.5703
Li    Li1084        0.6302    0.8237    0.8272
Li    Li1085        0.7324    0.8261    0.9496
Li    Li1086        0.5252    0.8590    0.8227
Li    Li1087        0.6271    0.8092    0.9305
Li    Li1088        0.6194    0.9678    0.1781
Li    Li1089        0.5078    0.9671    0.2106
Li    Li1090        0.6138    0.9900    0.0612
Li    Li1091        0.4992    0.9401    0.2907
Li    Li1092        0.6241    0.9865    0.3076
Li    Li1093        0.6358    0.9367    0.5604
Li    Li1094        0.4885    0.9899    0.6970
Li    Li1095        0.7344    0.9310    0.5617
Li    Li1096        0.6124    0.9764    0.5640
Li    Li1097        0.8990    0.0463    0.3152
Li    Li1098        0.8682    0.0628    0.4177
Li    Li1099        0.8848    0.0234    0.7077
Li    Li1100        0.9964    0.1374    0.4347
Li    Li1101        0.7604    0.1970    0.4353
Li    Li1102        0.8783    0.1148    0.4367
Li    Li1103        0.8600    0.2629    0.1804
Li    Li1104        0.8743    0.2203    0.2024
Li    Li1105        0.8487    0.2522    0.4467
Li    Li1106        0.9036    0.2514    0.5555
Li    Li1107        0.7548    0.2701    0.5755
Li    Li1108        0.8669    0.2760    0.5514
Li    Li1109        0.7510    0.3742    0.1996
Li    Li1110        0.8700    0.3093    0.2061
Li    Li1111        0.8763    0.3328    0.3163
Li    Li1112        0.8618    0.3642    0.4346
Li    Li1113        0.9903    0.3354    0.4332
Li    Li1114        0.7656    0.3610    0.3187
Li    Li1115        0.7622    0.3831    0.4354
Li    Li1116        0.0030    0.3111    0.3024
Li    Li1117        0.8757    0.3485    0.5495
Li    Li1118        0.8515    0.3532    0.6848
Li    Li1119        0.7684    0.3766    0.6787
Li    Li1120        0.9968    0.3067    0.5726
Li    Li1121        0.8733    0.3364    0.8096
Li    Li1122        0.8557    0.3526    0.9368
Li    Li1123        0.7610    0.3844    0.9340
Li    Li1124        0.8827    0.4458    0.0552
Li    Li1125        0.7597    0.4892    0.1894
Li    Li1126        0.8538    0.4233    0.1867
Li    Li1127        0.8818    0.4283    0.3233
Li    Li1128        0.9940    0.4413    0.4433
Li    Li1129        0.9922    0.4056    0.3062
Li    Li1130        0.7575    0.4920    0.6933
Li    Li1131        0.8671    0.4613    0.9346
Li    Li1132        0.9944    0.4405    0.9434
Li    Li1133        0.7527    0.5649    0.0688
Li    Li1134        0.8925    0.5448    0.3106
Li    Li1135        0.8796    0.5976    0.3010
Li    Li1136        0.8818    0.6332    0.0505
Li    Li1137        0.9870    0.6400    0.1845
Li    Li1138        0.9954    0.6096    0.0488
Li    Li1139        0.8783    0.6607    0.4341
Li    Li1140        0.7522    0.6577    0.5610
Li    Li1141        0.8654    0.6414    0.8218
Li    Li1142        0.7606    0.6676    0.8178
Li    Li1143        0.8878    0.6145    0.9357
Li    Li1144        0.9862    0.7489    0.1838
Li    Li1145        0.7437    0.7563    0.0773
Li    Li1146        0.8830    0.7117    0.1981
Li    Li1147        0.9966    0.7166    0.3091
Li    Li1148        0.8890    0.7344    0.5710
Li    Li1149        0.8611    0.7842    0.5559
Li    Li1150        0.9009    0.7043    0.6990
Li    Li1151        0.0191    0.7294    0.9344
Li    Li1152        0.7588    0.7922    0.9349
Li    Li1153        0.8531    0.8546    0.1828
Li    Li1154        0.7550    0.8625    0.0653
Li    Li1155        0.9881    0.8191    0.0669
Li    Li1156        0.8828    0.8131    0.2103
Li    Li1157        0.8649    0.8683    0.6538
Li    Li1158        0.7302    0.8778    0.9451
Li    Li1159        0.0001    0.9114    0.0505
Li    Li1160        0.9957    0.9369    0.6946
Li    Li1161        0.8890    0.9095    0.6877
Li    Li1162        0.1992    0.0428    0.5039
Li    Li1163        0.0302    0.1086    0.3695
Li    Li1164        0.1688    0.9981    0.3876
Li    Li1165        0.0897    0.0964    0.3769
Li    Li1166        0.1999    0.1467    0.2406
Li    Li1167        0.0763    0.1436    0.4831
Li    Li1168        0.2027    0.1222    0.3656
Li    Li1169        0.1634    0.1111    0.3832
Li    Li1170        0.0442    0.1685    0.5182
Li    Li1171        0.2155    0.1550    0.7442
Li    Li1172        0.1692    0.1984    0.1532
Li    Li1173        0.1825    0.2305    0.5065
Li    Li1174        0.0378    0.2527    0.5264
Li    Li1175        0.2058    0.2378    0.7394
Li    Li1176        0.0405    0.3118    0.6344
Li    Li1177        0.1729    0.1928    0.6386
Li    Li1178        0.0823    0.3038    0.6153
Li    Li1179        0.2021    0.2134    0.8577
Li    Li1180        0.1753    0.2072    0.8965
Li    Li1181        0.0476    0.4037    0.1478
Li    Li1182        0.0866    0.3578    0.4902
Li    Li1183        0.1671    0.3377    0.2640
Li    Li1184        0.2039    0.3362    0.4869
Li    Li1185        0.1939    0.3133    0.3678
Li    Li1186        0.0489    0.3981    0.3994
Li    Li1187        0.1677    0.3122    0.3930
Li    Li1188        0.0399    0.3515    0.5108
Li    Li1189        0.1956    0.3201    0.6271
Li    Li1190        0.0803    0.3625    0.9780
Li    Li1191        0.1755    0.3537    0.7643
Li    Li1192        0.2013    0.3364    0.9876
Li    Li1193        0.2060    0.3042    0.8623
Li    Li1194        0.0871    0.3898    0.8541
Li    Li1195        0.2074    0.3956    0.1055
Li    Li1196        0.0844    0.4977    0.0997
Li    Li1197        0.1710    0.4470    0.2693
Li    Li1198        0.0450    0.4624    0.2774
Li    Li1199        0.2012    0.4345    0.4836
Li    Li1200        0.2060    0.3969    0.3615
Li    Li1201        0.1708    0.3917    0.3866
Li    Li1202        0.0845    0.4985    0.3547
Li    Li1203        0.0329    0.4511    0.5233
Li    Li1204        0.2220    0.4393    0.7446
Li    Li1205        0.1652    0.4026    0.6348
Li    Li1206        0.0875    0.4519    0.9821
Li    Li1207        0.0411    0.4430    0.7617
Li    Li1208        0.1929    0.4340    0.9819
Li    Li1209        0.2066    0.4008    0.8679
Li    Li1210        0.0892    0.4987    0.8737
Li    Li1211        0.0858    0.5969    0.1080
Li    Li1212        0.1674    0.5463    0.2672
Li    Li1213        0.2065    0.5005    0.3610
Li    Li1214        0.0886    0.6030    0.3525
Li    Li1215        0.2077    0.5111    0.6116
Li    Li1216        0.1700    0.4964    0.6427
Li    Li1217        0.1624    0.5568    0.7598
Li    Li1218        0.2057    0.5103    0.8557
Li    Li1219        0.0897    0.6578    0.2459
Li    Li1220        0.1624    0.6570    0.0160
Li    Li1221        0.0293    0.6558    0.9974
Li    Li1222        0.2013    0.6044    0.1127
Li    Li1223        0.0390    0.7042    0.1404
Li    Li1224        0.1655    0.6033    0.1196
Li    Li1225        0.0888    0.6506    0.4756
Li    Li1226        0.2071    0.6457    0.4831
Li    Li1227        0.1963    0.5975    0.3624
Li    Li1228        0.1600    0.5967    0.3928
Li    Li1229        0.1740    0.6494    0.5070
Li    Li1230        0.0809    0.6526    0.9788
Li    Li1231        0.2014    0.6439    0.9979
Li    Li1232        0.0428    0.6843    0.8895
Li    Li1233        0.1686    0.7440    0.0140
Li    Li1234        0.2002    0.7381    0.2399
Li    Li1235        0.0617    0.7642    0.2428
Li    Li1236        0.2101    0.7091    0.3560
Li    Li1237        0.0713    0.7435    0.7380
Li    Li1238        0.1608    0.7499    0.5206
Li    Li1239        0.0535    0.7934    0.6409
Li    Li1240        0.1775    0.7114    0.6294
Li    Li1241        0.0917    0.8023    0.6185
Li    Li1242        0.0816    0.7864    0.8584
Li    Li1243        0.0462    0.8952    0.1380
Li    Li1244        0.0822    0.8930    0.1109
Li    Li1245        0.2052    0.8428    0.4861
Li    Li1246        0.2048    0.8466    0.7360
Li    Li1247        0.1755    0.7990    0.8934
Li    Li1248        0.0334    0.9440    0.0160
Li    Li1249        0.1647    0.9046    0.1392
Li    Li1250        0.0811    0.9563    0.4897
Li    Li1251        0.2124    0.9071    0.3587
Li    Li1252        0.1738    0.9080    0.3843
Li    Li1253        0.1645    0.9360    0.5172
Li    Li1254        0.0815    0.9395    0.9902
Li    Li1255        0.2078    0.9509    0.0069
Li    Li1256        0.2075    0.8969    0.8534
Li    Li1257        0.1749    0.9003    0.8821
Li    Li1258        0.3328    0.0551    0.4777
Li    Li1259        0.4323    0.0424    0.2523
Li    Li1260        0.4552    0.0423    0.4850
Li    Li1261        0.4150    0.0033    0.8910
Li    Li1262        0.4144    0.1368    0.0125
Li    Li1263        0.2945    0.1872    0.1439
Li    Li1264        0.3404    0.1963    0.1269
Li    Li1265        0.4518    0.1063    0.3655
Li    Li1266        0.4149    0.1095    0.3915
Li    Li1267        0.3336    0.1526    0.7385
Li    Li1268        0.4123    0.1399    0.7604
Li    Li1269        0.4759    0.1336    0.9986
Li    Li1270        0.4166    0.1053    0.8957
Li    Li1271        0.3295    0.1832    0.8607
Li    Li1272        0.4176    0.2438    0.0145
Li    Li1273        0.2937    0.2549    0.0141
Li    Li1274        0.4590    0.2003    0.1055
Li    Li1275        0.4205    0.2089    0.1525
Li    Li1276        0.4474    0.2504    0.7426
Li    Li1277        0.3293    0.2653    0.9810
Li    Li1278        0.2863    0.2522    0.7575
Li    Li1279        0.4065    0.1922    0.8948
Li    Li1280        0.3375    0.2902    0.8618
Li    Li1281        0.3571    0.3459    0.2408
Li    Li1282        0.4108    0.3456    0.0030
Li    Li1283        0.2885    0.3594    0.0161
Li    Li1284        0.4551    0.3434    0.2286
Li    Li1285        0.4643    0.3055    0.1139
Li    Li1286        0.2984    0.3922    0.1459
Li    Li1287        0.4108    0.3124    0.1344
Li    Li1288        0.3350    0.3984    0.1144
Li    Li1289        0.4118    0.3378    0.2608
Li    Li1290        0.2958    0.3461    0.5187
Li    Li1291        0.2909    0.3953    0.6288
Li    Li1292        0.2844    0.3567    0.7462
Li    Li1293        0.4248    0.3047    0.8941
Li    Li1294        0.2932    0.4494    0.0162
Li    Li1295        0.3320    0.4954    0.1084
Li    Li1296        0.4169    0.4494    0.2601
Li    Li1297        0.2955    0.4881    0.3970
Li    Li1298        0.3305    0.4605    0.7319
Li    Li1299        0.2914    0.4897    0.6490
Li    Li1300        0.3319    0.4638    0.9832
Li    Li1301        0.4497    0.4014    0.8607
Li    Li1302        0.4673    0.5352    0.2440
Li    Li1303        0.4578    0.5074    0.1103
Li    Li1304        0.4296    0.5148    0.1212
Li    Li1305        0.2939    0.5569    0.5112
Li    Li1306        0.3141    0.5477    0.9942
Li    Li1307        0.2994    0.6043    0.8989
Li    Li1308        0.3350    0.6547    0.2318
Li    Li1309        0.4655    0.6489    0.2476
Li    Li1310        0.4506    0.5933    0.1010
Li    Li1311        0.2843    0.6980    0.1355
Li    Li1312        0.3287    0.6965    0.1090
Li    Li1313        0.3394    0.6479    0.4830
Li    Li1314        0.2902    0.6893    0.3970
Li    Li1315        0.2974    0.6563    0.5147
Li    Li1316        0.4556    0.6069    0.6118
Li    Li1317        0.4454    0.6365    0.0003
Li    Li1318        0.4691    0.5982    0.8451
Li    Li1319        0.3441    0.7018    0.8711
Li    Li1320        0.4237    0.7442    0.0185
Li    Li1321        0.4173    0.7439    0.2623
Li    Li1322        0.2967    0.7577    0.2388
Li    Li1323        0.2956    0.8036    0.3911
Li    Li1324        0.2951    0.7538    0.5174
Li    Li1325        0.4494    0.7455    0.7639
Li    Li1326        0.4515    0.7051    0.6187
Li    Li1327        0.4537    0.7486    0.9818
Li    Li1328        0.4516    0.7137    0.8590
Li    Li1329        0.3322    0.7902    0.8558
Li    Li1330        0.2913    0.8645    0.0214
Li    Li1331        0.4648    0.8503    0.2446
Li    Li1332        0.4242    0.8545    0.2705
Li    Li1333        0.4607    0.8554    0.4757
Li    Li1334        0.4233    0.8389    0.5243
Li    Li1335        0.4734    0.7974    0.6223
Li    Li1336        0.3387    0.9002    0.6188
Li    Li1337        0.2914    0.8596    0.7717
Li    Li1338        0.4563    0.8046    0.8588
Li    Li1339        0.3380    0.9544    0.2345
Li    Li1340        0.4092    0.9532    0.0010
Li    Li1341        0.4505    0.9093    0.1150
Li    Li1342        0.2881    0.9981    0.3949
Li    Li1343        0.3419    0.0037    0.3581
Li    Li1344        0.3298    0.9536    0.7408
Li    Li1345        0.4136    0.9514    0.5170
Li    Li1346        0.4584    0.9431    0.7348
Li    Li1347        0.3007    0.9594    0.7627
Li    Li1348        0.4532    0.9498    0.9836
Li    Li1349        0.2945    0.0011    0.8944
Li    Li1350        0.5499    0.0623    0.0145
Li    Li1351        0.7056    0.0446    0.2406
Li    Li1352        0.7073    0.0024    0.1080
Li    Li1353        0.5751    0.0473    0.4936
Li    Li1354        0.5463    0.0973    0.3793
Li    Li1355        0.6605    0.0466    0.5265
Li    Li1356        0.5292    0.0501    0.5038
Li    Li1357        0.7037    0.0127    0.6136
Li    Li1358        0.7001    0.0966    0.1103
Li    Li1359        0.6676    0.1047    0.1348
Li    Li1360        0.5821    0.2021    0.3558
Li    Li1361        0.5790    0.1886    0.8549
Li    Li1362        0.6765    0.2014    0.1368
Li    Li1363        0.5463    0.2537    0.2755
Li    Li1364        0.7007    0.2412    0.4980
Li    Li1365        0.7166    0.2017    0.3750
Li    Li1366        0.6765    0.2443    0.5139
Li    Li1367        0.7010    0.2009    0.8684
Li    Li1368        0.5355    0.3049    0.8918
Li    Li1369        0.5447    0.3455    0.9983
Li    Li1370        0.7107    0.3189    0.1142
Li    Li1371        0.5761    0.4023    0.1130
Li    Li1372        0.6693    0.3448    0.5081
Li    Li1373        0.7067    0.3505    0.7282
Li    Li1374        0.7029    0.2949    0.6143
Li    Li1375        0.7137    0.3509    0.9938
Li    Li1376        0.6679    0.4469    0.0119
Li    Li1377        0.6644    0.3908    0.1504
Li    Li1378        0.5852    0.4460    0.9814
Li    Li1379        0.7087    0.4581    0.9757
Li    Li1380        0.5774    0.5642    0.2366
Li    Li1381        0.6951    0.5534    0.2371
Li    Li1382        0.7120    0.5088    0.1121
Li    Li1383        0.6857    0.5082    0.1351
Li    Li1384        0.5516    0.5969    0.3936
Li    Li1385        0.5835    0.5865    0.3618
Li    Li1386        0.5337    0.5982    0.6253
Li    Li1387        0.5764    0.5888    0.6089
Li    Li1388        0.5785    0.5543    0.9914
Li    Li1389        0.6746    0.5397    0.7636
Li    Li1390        0.7017    0.4991    0.8691
Li    Li1391        0.5520    0.5839    0.8745
Li    Li1392        0.5723    0.6470    0.2321
Li    Li1393        0.5468    0.6592    0.0097
Li    Li1394        0.6707    0.5959    0.1459
Li    Li1395        0.5807    0.6570    0.4835
Li    Li1396        0.7027    0.6423    0.4803
Li    Li1397        0.7104    0.6518    0.7322
Li    Li1398        0.6770    0.6165    0.6333
Li    Li1399        0.5808    0.7021    0.6060
Li    Li1400        0.5839    0.6589    0.9827
Li    Li1401        0.7031    0.6428    0.9845
Li    Li1402        0.5386    0.7447    0.0260
Li    Li1403        0.6690    0.7527    0.2677
Li    Li1404        0.5413    0.7478    0.5185
Li    Li1405        0.5381    0.7990    0.6471
Li    Li1406        0.6953    0.7340    0.9928
Li    Li1407        0.6639    0.8576    0.0060
Li    Li1408        0.6957    0.7958    0.1057
Li    Li1409        0.5387    0.8976    0.1421
Li    Li1410        0.6595    0.8008    0.1433
Li    Li1411        0.5758    0.8663    0.4745
Li    Li1412        0.5759    0.8543    0.7406
Li    Li1413        0.7060    0.8434    0.7301
Li    Li1414        0.5407    0.8988    0.6380
Li    Li1415        0.5876    0.8937    0.6133
Li    Li1416        0.5459    0.8600    0.7691
Li    Li1417        0.7094    0.8454    0.9758
Li    Li1418        0.7131    0.7992    0.8823
Li    Li1419        0.5512    0.8871    0.8879
Li    Li1420        0.7051    0.8951    0.1089
Li    Li1421        0.6635    0.9080    0.1438
Li    Li1422        0.6708    0.9363    0.5136
Li    Li1423        0.5413    0.9597    0.5174
Li    Li1424        0.5374    0.0054    0.6252
Li    Li1425        0.5400    0.9954    0.8854
Li    Li1426        0.9405    0.0593    0.2422
Li    Li1427        0.9148    0.0499    0.2625
Li    Li1428        0.9579    0.0492    0.4866
Li    Li1429        0.9322    0.0026    0.3747
Li    Li1430        0.9511    0.0072    0.6198
Li    Li1431        0.9217    0.0117    0.6435
Li    Li1432        0.8318    0.1532    0.2307
Li    Li1433        0.9117    0.1032    0.1428
Li    Li1434        0.8253    0.1605    0.4914
Li    Li1435        0.7967    0.1476    0.2668
Li    Li1436        0.9665    0.1068    0.3653
Li    Li1437        0.7966    0.1930    0.3996
Li    Li1438        0.8079    0.1511    0.5186
Li    Li1439        0.8282    0.2587    0.2280
Li    Li1440        0.9596    0.2312    0.2686
Li    Li1441        0.7961    0.3076    0.1544
Li    Li1442        0.9126    0.2556    0.2659
Li    Li1443        0.7927    0.2544    0.2630
Li    Li1444        0.9604    0.2068    0.3486
Li    Li1445        0.7976    0.2991    0.3855
Li    Li1446        0.8302    0.2628    0.7336
Li    Li1447        0.7979    0.2513    0.5152
Li    Li1448        0.7886    0.3014    0.6455
Li    Li1449        0.9239    0.2015    0.6418
Li    Li1450        0.8355    0.3446    0.2418
Li    Li1451        0.8035    0.3994    0.1401
Li    Li1452        0.9164    0.3051    0.1386
Li    Li1453        0.8408    0.3499    0.4721
Li    Li1454        0.8030    0.3598    0.2675
Li    Li1455        0.9622    0.3427    0.4908
Li    Li1456        0.9594    0.2949    0.3561
Li    Li1457        0.7821    0.4071    0.4054
Li    Li1458        0.8267    0.3536    0.7385
Li    Li1459        0.7896    0.3538    0.5213
Li    Li1460        0.9684    0.2954    0.5844
Li    Li1461        0.7906    0.4018    0.6370
Li    Li1462        0.9175    0.3066    0.6391
Li    Li1463        0.7970    0.3581    0.7521
Li    Li1464        0.8368    0.4628    0.2262
Li    Li1465        0.9104    0.4532    0.0165
Li    Li1466        0.9587    0.4438    0.2334
Li    Li1467        0.9582    0.4066    0.1110
Li    Li1468        0.9185    0.4113    0.1401
Li    Li1469        0.7830    0.4520    0.2690
Li    Li1470        0.9552    0.4563    0.4766
Li    Li1471        0.7903    0.5024    0.6449
Li    Li1472        0.8245    0.4476    0.9815
Li    Li1473        0.7824    0.4539    0.7531
Li    Li1474        0.7952    0.4860    0.8976
Li    Li1475        0.8270    0.4878    0.8600
Li    Li1476        0.9147    0.5415    0.0140
Li    Li1477        0.7948    0.5956    0.8921
Li    Li1478        0.9090    0.6451    0.0030
Li    Li1479        0.9559    0.6049    0.1066
Li    Li1480        0.7908    0.7007    0.1276
Li    Li1481        0.7985    0.7040    0.3910
Li    Li1482        0.8315    0.6970    0.3659
Li    Li1483        0.7897    0.6615    0.7654
Li    Li1484        0.9543    0.6482    0.9884
Li    Li1485        0.9149    0.5975    0.8959
Li    Li1486        0.8296    0.7056    0.8585
Li    Li1487        0.9187    0.7537    0.0176
Li    Li1488        0.7930    0.7477    0.0171
Li    Li1489        0.9670    0.7606    0.2143
Li    Li1490        0.9568    0.6997    0.1153
Li    Li1491        0.8372    0.7895    0.0994
Li    Li1492        0.8286    0.7476    0.7355
Li    Li1493        0.9258    0.7079    0.6495
Li    Li1494        0.8363    0.8040    0.6052
Li    Li1495        0.8372    0.7494    0.9903
Li    Li1496        0.9246    0.7457    0.7689
Li    Li1497        0.7933    0.7495    0.7596
Li    Li1498        0.9708    0.7492    0.0027
Li    Li1499        0.7877    0.8029    0.8978
Li    Li1500        0.9206    0.8419    0.0163
Li    Li1501        0.8341    0.8948    0.1153
Li    Li1502        0.8012    0.8631    0.2738
Li    Li1503        0.9563    0.7944    0.6007
Li    Li1504        0.7924    0.0115    0.6550
Li    Li1505        0.2777    0.0754    0.2256
Li    Li1506        0.9874    0.0092    0.4207
Li    Li1507        0.1275    0.0886    0.3964
Li    Li1508        0.2690    0.0609    0.4554
Li    Li1509        0.0212    0.0370    0.2886
Li    Li1510        0.2321    0.0619    0.7154
Li    Li1511        0.0094    0.0315    0.5295
Li    Li1512        0.2619    0.0837    0.8431
Li    Li1513        0.1134    0.1855    0.1497
Li    Li1514        0.2391    0.1630    0.2177
Li    Li1515        0.1175    0.1060    0.3452
Li    Li1516        0.1418    0.1903    0.4032
Li    Li1517        0.1266    0.1431    0.4607
Li    Li1518        0.2698    0.1690    0.4729
Li    Li1519        0.1112    0.1821    0.6462
Li    Li1520        0.2355    0.1661    0.7176
Li    Li1521        0.9913    0.1467    0.5394
Li    Li1522        0.2522    0.1922    0.8422
Li    Li1523        0.1146    0.1842    0.8974
Li    Li1524        0.2476    0.2859    0.1003
Li    Li1525        0.1150    0.2146    0.0974
Li    Li1526        0.9804    0.2349    0.2857
Li    Li1527        0.2537    0.2922    0.5909
Li    Li1528        0.1244    0.2099    0.6075
Li    Li1529        0.1080    0.2863    0.6549
Li    Li1530        0.1264    0.2374    0.7225
Li    Li1531        0.2510    0.2648    0.7212
Li    Li1532        0.2284    0.2814    0.8545
Li    Li1533        0.1304    0.2148    0.8411
Li    Li1534        0.1123    0.2910    0.9033
Li    Li1535        0.1059    0.2626    0.7850
Li    Li1536        0.2510    0.2657    0.9745
Li    Li1537        0.2647    0.3980    0.0869
Li    Li1538        0.1147    0.3874    0.1638
Li    Li1539        0.1383    0.3639    0.0303
Li    Li1540        0.1405    0.3412    0.2270
Li    Li1541        0.1424    0.3859    0.3993
Li    Li1542        0.1269    0.3595    0.2740
Li    Li1543        0.1301    0.3432    0.4604
Li    Li1544        0.2530    0.3615    0.4731
Li    Li1545        0.0015    0.3077    0.6442
Li    Li1546        0.2533    0.3930    0.6051
Li    Li1547        0.1352    0.3168    0.6087
Li    Li1548        0.1312    0.3805    0.6481
Li    Li1549        0.1205    0.3568    0.5354
Li    Li1550        0.1438    0.3380    0.7173
Li    Li1551        0.2565    0.3768    0.8547
Li    Li1552        0.1256    0.3136    0.8478
Li    Li1553        0.1406    0.3841    0.9049
Li    Li1554        0.1379    0.3393    0.9661
Li    Li1555        0.9869    0.4270    0.1474
Li    Li1556        0.2574    0.4740    0.1116
Li    Li1557        0.1210    0.4120    0.0982
Li    Li1558        0.1172    0.4599    0.0345
Li    Li1559        0.2599    0.4904    0.3502
Li    Li1560        0.1144    0.4122    0.3504
Li    Li1561        0.1117    0.4911    0.4141
Li    Li1562        0.1041    0.4706    0.2719
Li    Li1563        0.1438    0.4352    0.5002
Li    Li1564        0.2397    0.4637    0.4684
Li    Li1565        0.9804    0.4374    0.2866
Li    Li1566        0.1216    0.4341    0.7199
Li    Li1567        0.2629    0.4574    0.7198
Li    Li1568        0.0157    0.4236    0.5270
Li    Li1569        0.9952    0.4133    0.8946
Li    Li1570        0.2679    0.4900    0.8378
Li    Li1571        0.1208    0.4916    0.9076
Li    Li1572        0.1201    0.4604    0.7781
Li    Li1573        0.1167    0.5127    0.0961
Li    Li1574        0.0077    0.5463    0.0140
Li    Li1575        0.9953    0.5087    0.4100
Li    Li1576        0.1403    0.5859    0.4088
Li    Li1577        0.1127    0.5577    0.2783
Li    Li1578        0.2651    0.5663    0.4642
Li    Li1579        0.0030    0.5411    0.2945
Li    Li1580        0.2643    0.5909    0.5872
Li    Li1581        0.1100    0.5195    0.5977
Li    Li1582        0.1327    0.5449    0.7234
Li    Li1583        0.2355    0.5656    0.7239
Li    Li1584        0.0023    0.5087    0.9035
Li    Li1585        0.1392    0.5082    0.8346
Li    Li1586        0.1035    0.5609    0.7811
Li    Li1587        0.9849    0.6099    0.1641
Li    Li1588        0.2544    0.6862    0.0964
Li    Li1589        0.1330    0.6057    0.0826
Li    Li1590        0.1262    0.6655    0.0264
Li    Li1591        0.2553    0.6617    0.2134
Li    Li1592        0.0113    0.6399    0.0253
Li    Li1593        0.9743    0.6265    0.3938
Li    Li1594        0.1250    0.6068    0.3435
Li    Li1595        0.1155    0.6841    0.3985
Li    Li1596        0.1157    0.6709    0.2783
Li    Li1597        0.1316    0.6409    0.4620
Li    Li1598        0.9787    0.6268    0.2652
Li    Li1599        0.1231    0.6602    0.5251
Li    Li1600        0.1256    0.6615    0.7740
Li    Li1601        0.1283    0.6451    0.9692
Li    Li1602        0.2524    0.6599    0.9724
Li    Li1603        0.0202    0.7164    0.1577
Li    Li1604        0.9980    0.7405    0.0226
Li    Li1605        0.0224    0.7074    0.4075
Li    Li1606        0.1275    0.7077    0.3334
Li    Li1607        0.1086    0.7635    0.2896
Li    Li1608        0.1247    0.7383    0.4752
Li    Li1609        0.9977    0.7516    0.2774
Li    Li1610        0.2560    0.7943    0.5878
Li    Li1611        0.1196    0.7896    0.6550
Li    Li1612        0.1358    0.7700    0.5316
Li    Li1613        0.1024    0.7348    0.7268
Li    Li1614        0.2516    0.7852    0.8465
Li    Li1615        0.1323    0.7167    0.8499
Li    Li1616        0.1419    0.7849    0.9086
Li    Li1617        0.1143    0.7515    0.7860
Li    Li1618        0.2624    0.7596    0.9564
Li    Li1619        0.9943    0.7339    0.7738
Li    Li1620        0.1423    0.8132    0.0897
Li    Li1621        0.1095    0.8928    0.1560
Li    Li1622        0.1445    0.8625    0.0319
Li    Li1623        0.9988    0.8391    0.0280
Li    Li1624        0.2509    0.8901    0.3485
Li    Li1625        0.1252    0.8978    0.4033
Li    Li1626        0.1274    0.8417    0.4668
Li    Li1627        0.1266    0.8593    0.5276
Li    Li1628        0.2459    0.8596    0.7204
Li    Li1629        0.2509    0.8798    0.8564
Li    Li1630        0.1310    0.8046    0.8371
Li    Li1631        0.2503    0.8601    0.9755
Li    Li1632        0.0045    0.9120    0.1519
Li    Li1633        0.1399    0.9215    0.1018
Li    Li1634        0.1107    0.9678    0.0230
Li    Li1635        0.2395    0.9602    0.2212
Li    Li1636        0.1364    0.9112    0.3354
Li    Li1637        0.1245    0.9799    0.4005
Li    Li1638        0.1281    0.9364    0.4823
Li    Li1639        0.2610    0.9600    0.4580
Li    Li1640        0.9953    0.9204    0.6473
Li    Li1641        0.2494    0.9636    0.7214
Li    Li1642        0.1383    0.9103    0.8380
Li    Li1643        0.1402    0.9611    0.7786
Li    Li1644        0.1284    0.9335    0.9740
Li    Li1645        0.2341    0.9637    0.9688
Li    Li1646        0.2638    0.0079    0.1517
Li    Li1647        0.3803    0.0113    0.0972
Li    Li1648        0.3611    0.0589    0.0309
Li    Li1649        0.5141    0.0750    0.2331
Li    Li1650        0.5209    0.0871    0.3378
Li    Li1651        0.3778    0.0075    0.3467
Li    Li1652        0.3747    0.0884    0.3997
Li    Li1653        0.3776    0.0376    0.4699
Li    Li1654        0.2451    0.0338    0.5260
Li    Li1655        0.3793    0.0082    0.8571
Li    Li1656        0.5124    0.0648    0.9733
Li    Li1657        0.2324    0.0309    0.7772
Li    Li1658        0.2397    0.1112    0.1586
Li    Li1659        0.5065    0.1919    0.0932
Li    Li1660        0.3894    0.1872    0.1534
Li    Li1661        0.3684    0.1519    0.0244
Li    Li1662        0.3756    0.1437    0.2182
Li    Li1663        0.3740    0.1088    0.3432
Li    Li1664        0.3659    0.1611    0.2716
Li    Li1665        0.5118    0.1615    0.4693
Li    Li1666        0.2696    0.1326    0.2784
Li    Li1667        0.4025    0.1356    0.7173
Li    Li1668        0.3632    0.1550    0.7799
Li    Li1669        0.4969    0.1546    0.9692
Li    Li1670        0.2467    0.1433    0.7824
Li    Li1671        0.5140    0.2866    0.0886
Li    Li1672        0.3747    0.2873    0.1573
Li    Li1673        0.3556    0.2255    0.2256
Li    Li1674        0.2395    0.2404    0.0299
Li    Li1675        0.2488    0.2067    0.4098
Li    Li1676        0.3605    0.2151    0.3423
Li    Li1677        0.2259    0.2264    0.6400
Li    Li1678        0.2431    0.2349    0.5251
Li    Li1679        0.5170    0.2817    0.8595
Li    Li1680        0.3779    0.2121    0.8497
Li    Li1681        0.3567    0.2871    0.9115
Li    Li1682        0.4965    0.2688    0.9692
Li    Li1683        0.2461    0.3082    0.1568
Li    Li1684        0.3818    0.3157    0.0874
Li    Li1685        0.3675    0.3906    0.1643
Li    Li1686        0.3670    0.3356    0.2178
Li    Li1687        0.2385    0.3409    0.0373
Li    Li1688        0.2341    0.3222    0.4023
Li    Li1689        0.3629    0.3662    0.2679
Li    Li1690        0.3736    0.3837    0.6533
Li    Li1691        0.2580    0.3023    0.8884
Li    Li1692        0.3938    0.3145    0.8566
Li    Li1693        0.3860    0.3429    0.9657
Li    Li1694        0.2615    0.4154    0.1510
Li    Li1695        0.5031    0.4863    0.1043
Li    Li1696        0.3839    0.4162    0.0931
Li    Li1697        0.3706    0.4597    0.0365
Li    Li1698        0.3734    0.4328    0.2188
Li    Li1699        0.2585    0.4399    0.0324
Li    Li1700        0.2334    0.4151    0.6368
Li    Li1701        0.3777    0.4458    0.7195
Li    Li1702        0.3795    0.4636    0.7722
Li    Li1703        0.2646    0.5145    0.1574
Li    Li1704        0.3677    0.5075    0.0829
Li    Li1705        0.3746    0.5629    0.0280
Li    Li1706        0.2463    0.5098    0.4133
Li    Li1707        0.5048    0.5624    0.4656
Li    Li1708        0.2631    0.5146    0.6575
Li    Li1709        0.2430    0.5341    0.5237
Li    Li1710        0.2505    0.5129    0.9159
Li    Li1711        0.3755    0.5876    0.9022
Li    Li1712        0.3850    0.5369    0.9825
Li    Li1713        0.2420    0.5421    0.7837
Li    Li1714        0.3841    0.6165    0.0959
Li    Li1715        0.3711    0.6944    0.1602
Li    Li1716        0.3620    0.6568    0.0313
Li    Li1717        0.3702    0.6472    0.2178
Li    Li1718        0.4989    0.6657    0.2209
Li    Li1719        0.2531    0.6370    0.0315
Li    Li1720        0.5020    0.6845    0.3532
Li    Li1721        0.3793    0.6638    0.2816
Li    Li1722        0.3928    0.6392    0.4689
Li    Li1723        0.4989    0.6935    0.5909
Li    Li1724        0.3835    0.6098    0.5878
Li    Li1725        0.3680    0.6743    0.5268
Li    Li1726        0.2396    0.6424    0.5333
Li    Li1727        0.2520    0.6077    0.9117
Li    Li1728        0.5050    0.6930    0.8233
Li    Li1729        0.3847    0.6430    0.9627
Li    Li1730        0.2305    0.7144    0.1455
Li    Li1731        0.3708    0.7623    0.0295
Li    Li1732        0.4014    0.7331    0.2286
Li    Li1733        0.2433    0.7299    0.0203
Li    Li1734        0.2348    0.7211    0.4017
Li    Li1735        0.3631    0.7804    0.4101
Li    Li1736        0.3717    0.7602    0.2793
Li    Li1737        0.4931    0.7633    0.4743
Li    Li1738        0.2425    0.7402    0.2928
Li    Li1739        0.2402    0.7110    0.6607
Li    Li1740        0.4959    0.7910    0.6009
Li    Li1741        0.3749    0.7136    0.5916
Li    Li1742        0.3588    0.7854    0.6458
Li    Li1743        0.3764    0.7643    0.5265
Li    Li1744        0.3709    0.7448    0.7306
Li    Li1745        0.2643    0.7325    0.5263
Li    Li1746        0.2636    0.7144    0.9034
Li    Li1747        0.5138    0.7923    0.8376
Li    Li1748        0.3445    0.7682    0.7721
Li    Li1749        0.2487    0.7352    0.7775
Li    Li1750        0.4981    0.8866    0.0975
Li    Li1751        0.3679    0.8185    0.1028
Li    Li1752        0.3616    0.8934    0.1582
Li    Li1753        0.3582    0.8400    0.2189
Li    Li1754        0.5106    0.8774    0.3497
Li    Li1755        0.3816    0.8613    0.2806
Li    Li1756        0.4992    0.8891    0.5975
Li    Li1757        0.3723    0.8066    0.5893
Li    Li1758        0.3745    0.8575    0.5378
Li    Li1759        0.3791    0.8419    0.7036
Li    Li1760        0.5100    0.8783    0.7256
Li    Li1761        0.5121    0.8972    0.8378
Li    Li1762        0.3847    0.8106    0.8408
Li    Li1763        0.3664    0.8886    0.9000
Li    Li1764        0.4954    0.8620    0.9657
Li    Li1765        0.3849    0.9182    0.1041
Li    Li1766        0.3722    0.9957    0.1536
Li    Li1767        0.3741    0.9601    0.0355
Li    Li1768        0.2324    0.9273    0.4028
Li    Li1769        0.4920    0.9813    0.3441
Li    Li1770        0.5151    0.9723    0.4772
Li    Li1771        0.2451    0.9391    0.2908
Li    Li1772        0.2506    0.9113    0.6575
Li    Li1773        0.4982    0.9880    0.5979
Li    Li1774        0.3786    0.9206    0.6021
Li    Li1775        0.3815    0.9604    0.5297
Li    Li1776        0.3810    0.9351    0.7169
Li    Li1777        0.5081    0.9837    0.8508
Li    Li1778        0.3952    0.9203    0.8703
Li    Li1779        0.3616    0.9873    0.8995
Li    Li1780        0.3732    0.9659    0.7750
Li    Li1781        0.3870    0.9406    0.9648
Li    Li1782        0.5124    0.9636    0.9585
Li    Li1783        0.2475    0.9379    0.7881
Li    Li1784        0.6281    0.0171    0.1019
Li    Li1785        0.6221    0.0855    0.1499
Li    Li1786        0.6292    0.0394    0.2199
Li    Li1787        0.7474    0.0667    0.2166
Li    Li1788        0.5022    0.0351    0.0279
Li    Li1789        0.4736    0.0131    0.3988
Li    Li1790        0.6127    0.0127    0.3477
Li    Li1791        0.6096    0.0635    0.2817
Li    Li1792        0.6226    0.0421    0.4762
Li    Li1793        0.5037    0.0364    0.2737
Li    Li1794        0.5031    0.0112    0.6575
Li    Li1795        0.6230    0.0121    0.5923
Li    Li1796        0.4889    0.0426    0.5325
Li    Li1797        0.4941    0.0134    0.9092
Li    Li1798        0.5039    0.1125    0.1562
Li    Li1799        0.6287    0.1166    0.0999
Li    Li1800        0.6178    0.1596    0.0340
Li    Li1801        0.7574    0.1619    0.2202
Li    Li1802        0.7730    0.1896    0.3541
Li    Li1803        0.6467    0.1100    0.3371
Li    Li1804        0.6056    0.1877    0.4102
Li    Li1805        0.7598    0.1817    0.8556
Li    Li1806        0.4935    0.2091    0.1625
Li    Li1807        0.7565    0.2908    0.0978
Li    Li1808        0.6320    0.2082    0.0908
Li    Li1809        0.6107    0.3003    0.1631
Li    Li1810        0.6080    0.2702    0.0266
Li    Li1811        0.6190    0.2125    0.3473
Li    Li1812        0.4875    0.2425    0.2947
Li    Li1813        0.4892    0.2060    0.6687
Li    Li1814        0.7613    0.2818    0.5997
Li    Li1815        0.6404    0.2201    0.5957
Li    Li1816        0.5064    0.2131    0.9050
Li    Li1817        0.6139    0.2122    0.8434
Li    Li1818        0.6074    0.2818    0.9039
Li    Li1819        0.6055    0.2679    0.7730
Li    Li1820        0.6346    0.3136    0.1028
Li    Li1821        0.6309    0.3396    0.2178
Li    Li1822        0.5030    0.3390    0.0297
Li    Li1823        0.7619    0.3551    0.4647
Li    Li1824        0.7624    0.3838    0.6007
Li    Li1825        0.7574    0.3550    0.7100
Li    Li1826        0.4942    0.3144    0.9055
Li    Li1827        0.7661    0.3848    0.8581
Li    Li1828        0.7479    0.3677    0.9737
Li    Li1829        0.6225    0.3987    0.1006
Li    Li1830        0.7642    0.4776    0.2313
Li    Li1831        0.7542    0.4862    0.8540
Li    Li1832        0.6085    0.4876    0.9032
Li    Li1833        0.7530    0.4598    0.9743
Li    Li1834        0.4817    0.5256    0.1397
Li    Li1835        0.7505    0.5896    0.1001
Li    Li1836        0.6433    0.5162    0.0946
Li    Li1837        0.6229    0.5946    0.1634
Li    Li1838        0.7564    0.5622    0.2200
Li    Li1839        0.4964    0.5431    0.0304
Li    Li1840        0.4891    0.5304    0.2843
Li    Li1841        0.6313    0.5252    0.7308
Li    Li1842        0.7426    0.5676    0.7173
Li    Li1843        0.7493    0.5948    0.8419
Li    Li1844        0.6328    0.5099    0.8319
Li    Li1845        0.6279    0.5408    0.9651
Li    Li1846        0.4878    0.6122    0.1584
Li    Li1847        0.7605    0.6772    0.1073
Li    Li1848        0.6284    0.6093    0.1034
Li    Li1849        0.6275    0.6584    0.0291
Li    Li1850        0.6178    0.6341    0.2274
Li    Li1851        0.7530    0.6563    0.2175
Li    Li1852        0.6421    0.6171    0.3452
Li    Li1853        0.6201    0.6795    0.3960
Li    Li1854        0.6180    0.6587    0.2815
Li    Li1855        0.6316    0.6353    0.4756
Li    Li1856        0.7709    0.6740    0.4763
Li    Li1857        0.4922    0.6224    0.6426
Li    Li1858        0.6209    0.6147    0.5933
Li    Li1859        0.6111    0.6617    0.5264
Li    Li1860        0.5171    0.6147    0.8940
Li    Li1861        0.6239    0.6571    0.7880
Li    Li1862        0.7341    0.7878    0.0918
Li    Li1863        0.6225    0.7131    0.0939
Li    Li1864        0.6289    0.7629    0.0280
Li    Li1865        0.4961    0.7348    0.0245
Li    Li1866        0.4945    0.7176    0.4000
Li    Li1867        0.6246    0.7092    0.3503
Li    Li1868        0.7525    0.7945    0.5960
Li    Li1869        0.6361    0.7897    0.6526
Li    Li1870        0.5030    0.7374    0.5257
Li    Li1871        0.7700    0.7887    0.8342
Li    Li1872        0.6176    0.7855    0.9005
Li    Li1873        0.7506    0.7636    0.9737
Li    Li1874        0.5158    0.7343    0.7829
Li    Li1875        0.7524    0.8952    0.0939
Li    Li1876        0.7598    0.8707    0.2260
Li    Li1877        0.4898    0.8414    0.0325
Li    Li1878        0.4975    0.8116    0.6536
Li    Li1879        0.7469    0.8880    0.5955
Li    Li1880        0.6321    0.8080    0.5932
Li    Li1881        0.6230    0.8890    0.6536
Li    Li1882        0.6064    0.8614    0.5399
Li    Li1883        0.5032    0.8330    0.5276
Li    Li1884        0.5189    0.8134    0.9012
Li    Li1885        0.6071    0.8136    0.8401
Li    Li1886        0.6247    0.8895    0.9017
Li    Li1887        0.6391    0.8625    0.7837
Li    Li1888        0.6409    0.8274    0.9830
Li    Li1889        0.5180    0.8342    0.7764
Li    Li1890        0.7461    0.9886    0.0975
Li    Li1891        0.6595    0.9397    0.2124
Li    Li1892        0.6288    0.9837    0.4032
Li    Li1893        0.6071    0.9321    0.4774
Li    Li1894        0.4880    0.9176    0.6489
Li    Li1895        0.7594    0.9841    0.6044
Li    Li1896        0.6176    0.9133    0.6003
Li    Li1897        0.6212    0.9436    0.9695
Li    Li1898        0.5095    0.9347    0.7792
Li    Li1899        0.7339    0.0128    0.1440
Li    Li1900        0.8936    0.0801    0.1528
Li    Li1901        0.8684    0.0388    0.2190
Li    Li1902        0.9910    0.0826    0.3447
Li    Li1903        0.8912    0.0083    0.3461
Li    Li1904        0.8644    0.0819    0.3936
Li    Li1905        0.8838    0.0619    0.2795
Li    Li1906        0.0036    0.0640    0.4707
Li    Li1907        0.7382    0.0069    0.6502
Li    Li1908        0.8951    0.0231    0.6020
Li    Li1909        0.8792    0.0625    0.5304
Li    Li1910        0.7493    0.0310    0.5271
Li    Li1911        0.7702    0.1160    0.1537
Li    Li1912        0.8872    0.1087    0.1022
Li    Li1913        0.8740    0.1398    0.2122
Li    Li1914        0.8726    0.1836    0.3986
Li    Li1915        0.8767    0.1553    0.2747
Li    Li1916        0.8620    0.1412    0.4860
Li    Li1917        0.8949    0.2272    0.2391
Li    Li1918        0.7528    0.2079    0.4045
Li    Li1919        0.8832    0.2128    0.3448
Li    Li1920        0.8698    0.2385    0.4788
Li    Li1921        0.9989    0.2889    0.5938
Li    Li1922        0.8955    0.2180    0.5883
Li    Li1923        0.8488    0.2810    0.6396
Li    Li1924        0.8633    0.2646    0.5247
Li    Li1925        0.8939    0.2338    0.7251
Li    Li1926        0.9965    0.2644    0.7263
Li    Li1927        0.7395    0.2404    0.5434
Li    Li1928        0.8770    0.2635    0.7709
Li    Li1929        0.7415    0.3086    0.1666
Li    Li1930        0.8797    0.3141    0.1150
Li    Li1931        0.7418    0.3459    0.0347
Li    Li1932        0.9772    0.3747    0.3590
Li    Li1933        0.8852    0.3082    0.3378
Li    Li1934        0.8658    0.3910    0.4102
Li    Li1935        0.8749    0.3577    0.2855
Li    Li1936        0.8825    0.3314    0.4769
Li    Li1937        0.7463    0.3372    0.2733
Li    Li1938        0.7531    0.3090    0.6504
Li    Li1939        0.8623    0.3929    0.6646
Li    Li1940        0.8576    0.3668    0.5219
Li    Li1941        0.8714    0.3411    0.7145
Li    Li1942        0.8700    0.3112    0.8413
Li    Li1943        0.8654    0.3707    0.7671
Li    Li1944        0.0083    0.3623    0.9737
Li    Li1945        0.0043    0.4737    0.2189
Li    Li1946        0.0005    0.4894    0.3546
Li    Li1947        0.8771    0.4102    0.3401
Li    Li1948        0.8780    0.4574    0.2736
Li    Li1949        0.8619    0.4308    0.7191
Li    Li1950        0.8675    0.4863    0.9069
Li    Li1951        0.8845    0.4324    0.9758
Li    Li1952        0.7662    0.4381    0.7781
Li    Li1953        0.9946    0.5922    0.0909
Li    Li1954        0.9964    0.5832    0.3478
Li    Li1955        0.8543    0.5668    0.2758
Li    Li1956        0.7476    0.5143    0.6536
Li    Li1957        0.7462    0.5180    0.8990
Li    Li1958        0.0081    0.5803    0.8506
Li    Li1959        0.8774    0.5413    0.9742
Li    Li1960        0.7409    0.6112    0.1539
Li    Li1961        0.9971    0.6854    0.1011
Li    Li1962        0.8838    0.6371    0.2219
Li    Li1963        0.9860    0.6626    0.2239
Li    Li1964        0.7433    0.6442    0.0318
Li    Li1965        0.0207    0.6832    0.3516
Li    Li1966        0.8747    0.6607    0.2795
Li    Li1967        0.8797    0.6394    0.4638
Li    Li1968        0.9822    0.6646    0.4673
Li    Li1969        0.7454    0.6442    0.2759
Li    Li1970        0.8829    0.6936    0.6426
Li    Li1971        0.8809    0.6604    0.5248
Li    Li1972        0.7457    0.6178    0.8951
Li    Li1973        0.8853    0.6180    0.8547
Li    Li1974        0.8751    0.6855    0.9064
Li    Li1975        0.8675    0.6664    0.7771
Li    Li1976        0.9977    0.6619    0.9756
Li    Li1977        0.7458    0.7128    0.1533
Li    Li1978        0.9852    0.7827    0.0956
Li    Li1979        0.8820    0.7776    0.1513
Li    Li1980        0.8715    0.7562    0.0402
Li    Li1981        0.8773    0.7429    0.2110
Li    Li1982        0.7427    0.7399    0.0326
Li    Li1983        0.8808    0.7136    0.3455
Li    Li1984        0.8820    0.7449    0.4713
Li    Li1985        0.0071    0.7841    0.6062
Li    Li1986        0.8572    0.7180    0.5973
Li    Li1987        0.8706    0.7550    0.5277
Li    Li1988        0.8717    0.7369    0.7269
Li    Li1989        0.0076    0.7536    0.7141
Li    Li1990        0.8794    0.7102    0.8348
Li    Li1991        0.8732    0.7950    0.9092
Li    Li1992        0.8837    0.7243    0.9766
Li    Li1993        0.7497    0.8187    0.1447
Li    Li1994        0.8762    0.8116    0.1033
Li    Li1995        0.8654    0.8991    0.1584
Li    Li1996        0.8666    0.8408    0.2268
Li    Li1997        0.7274    0.8378    0.0339
Li    Li1998        0.7449    0.8223    0.6460
Li    Li1999        0.0007    0.8880    0.5943
Li    Li2000        0.8718    0.8907    0.6564
Li    Li2001        0.8857    0.8651    0.5358
Li    Li2002        0.8830    0.8403    0.7100
Li    Li2003        0.8889    0.8385    0.9606
Li    Li2004        0.9931    0.9870    0.0946
Li    Li2005        0.9834    0.9853    0.3470
Li    Li2006        0.7617    0.9046    0.6384
Li    Li2007        0.0089    0.9710    0.7243
