data_max_cluster
_audit_creation_method         'generated by data2config v5.5c'
 
_cell_length_a                  84.92680
_cell_length_b                  87.57400
_cell_length_c                  75.14280
_cell_angle_alpha               90.00000
_cell_angle_beta                96.73700
_cell_angle_gamma               90.00000
 
loop_
_symmetry_equiv_pos_as_xyz
'+x,+y,+z'
 
loop_
_atom_site_type_symbol
_atom_site_label
_atom_site_fract_x
_atom_site_fract_y
_atom_site_fract_z
Li    Li1        0.2134    0.1359    0.7847
Li    Li2        0.0381    0.2636    0.7113
Li    Li3        0.1637    0.2386    0.7140
Li    Li4        0.0365    0.2923    0.5860
Li    Li5        0.2128    0.2353    0.7816
Li    Li6        0.2172    0.3144    0.9165
Li    Li7        0.2124    0.6426    0.7859
Li    Li8        0.0913    0.6643    0.7866
Li    Li9        0.1639    0.6132    0.8389
Li    Li10        0.2093    0.7176    0.9105
Li    Li11        0.2861    0.0825    0.8366
Li    Li12        0.3336    0.1909    0.6619
Li    Li13        0.4580    0.1116    0.9074
Li    Li14        0.4589    0.2390    0.7846
Li    Li15        0.2853    0.3569    0.7149
Li    Li16        0.4145    0.3368    0.7124
Li    Li17        0.4138    0.4421    0.2160
Li    Li18        0.3395    0.4840    0.1610
Li    Li19        0.3331    0.5578    0.0348
Li    Li20        0.2896    0.5622    0.9656
Li    Li21        0.4203    0.5421    0.9635
Li    Li22        0.4602    0.6363    0.0320
Li    Li23        0.3368    0.6634    0.0326
Li    Li24        0.4075    0.6084    0.0882
Li    Li25        0.3309    0.6870    0.6616
Li    Li26        0.3385    0.6648    0.7888
Li    Li27        0.3417    0.6932    0.9155
Li    Li28        0.4670    0.6120    0.9152
Li    Li29        0.5915    0.2905    0.4094
Li    Li30        0.5848    0.2965    0.9130
Li    Li31        0.6668    0.3340    0.2136
Li    Li32        0.5837    0.3881    0.1569
Li    Li33        0.7086    0.3357    0.2832
Li    Li34        0.6610    0.3135    0.3420
Li    Li35        0.5887    0.3865    0.6691
Li    Li36        0.5475    0.3551    0.9660
Li    Li37        0.7125    0.3085    0.9097
Li    Li38        0.5881    0.4922    0.6567
Li    Li39        0.5418    0.5882    0.0920
Li    Li40        0.5328    0.5584    0.7105
Li    Li41        0.5440    0.5568    0.9642
Li    Li42        0.7073    0.6396    0.0318
Li    Li43        0.9162    0.1365    0.2117
Li    Li44        0.9645    0.2328    0.5355
Li    Li45        0.7946    0.2716    0.8509
Li    Li46        0.7840    0.3544    0.2085
Li    Li47        0.9050    0.3334    0.4605
Li    Li48        0.9629    0.3418    0.5340
Li    Li49        0.9019    0.3147    0.5885
Li    Li50        0.1792    0.1349    0.8135
Li    Li51        0.0772    0.2836    0.3109
Li    Li52        0.0795    0.2631    0.6903
Li    Li53        0.2033    0.2393    0.6908
Li    Li54        0.0475    0.2833    0.6821
Li    Li55        0.1778    0.2309    0.8119
Li    Li56        0.2066    0.3272    0.6920
Li    Li57        0.1977    0.5363    0.9397
Li    Li58        0.1669    0.6259    0.8065
Li    Li59        0.1950    0.6128    0.8157
Li    Li60        0.1661    0.7234    0.9298
Li    Li61        0.3011    0.0876    0.6884
Li    Li62        0.3294    0.0791    0.8212
Li    Li63        0.3299    0.1649    0.6993
Li    Li64        0.2907    0.1743    0.6796
Li    Li65        0.3322    0.1671    0.9391
Li    Li66        0.4537    0.1317    0.9412
Li    Li67        0.2958    0.1696    0.8065
Li    Li68        0.2987    0.1890    0.9366
Li    Li69        0.3354    0.1682    0.8233
Li    Li70        0.4226    0.1154    0.9365
Li    Li71        0.4641    0.2353    0.2006
Li    Li72        0.4179    0.2235    0.8044
Li    Li73        0.3305    0.2717    0.9401
Li    Li74        0.2880    0.2786    0.8050
Li    Li75        0.2872    0.2772    0.9322
Li    Li76        0.4607    0.2200    0.8205
Li    Li77        0.4303    0.2148    0.9386
Li    Li78        0.3297    0.3711    0.1998
Li    Li79        0.2884    0.3627    0.0579
Li    Li80        0.4475    0.3114    0.3043
Li    Li81        0.3250    0.3673    0.6837
Li    Li82        0.4594    0.3299    0.6950
Li    Li83        0.2974    0.3885    0.6820
Li    Li84        0.4448    0.3256    0.9422
Li    Li85        0.4468    0.4429    0.1958
Li    Li86        0.2981    0.4774    0.1838
Li    Li87        0.4297    0.4407    0.5618
Li    Li88        0.4556    0.4153    0.5659
Li    Li89        0.4158    0.4219    0.6779
Li    Li90        0.4183    0.5298    0.0588
Li    Li91        0.3298    0.5862    0.0720
Li    Li92        0.4168    0.5165    0.1830
Li    Li93        0.4566    0.5342    0.6946
Li    Li94        0.4253    0.5307    0.6860
Li    Li95        0.3349    0.5785    0.9401
Li    Li96        0.3016    0.5823    0.9378
Li    Li97        0.4175    0.6348    0.0542
Li    Li98        0.4608    0.6274    0.0699
Li    Li99        0.3329    0.6702    0.0702
Li    Li100        0.4508    0.6389    0.6886
Li    Li101        0.4172    0.6201    0.6808
Li    Li102        0.4227    0.6364    0.8078
Li    Li103        0.4482    0.6391    0.9360
Li    Li104        0.2990    0.6665    0.8093
Li    Li105        0.2922    0.6721    0.9327
Li    Li106        0.4180    0.6196    0.9353
Li    Li107        0.4178    0.7257    0.0520
Li    Li108        0.4172    0.7173    0.9384
Li    Li109        0.5450    0.2803    0.3053
Li    Li110        0.5402    0.2722    0.4201
Li    Li111        0.5469    0.2657    0.8043
Li    Li112        0.5877    0.3813    0.1991
Li    Li113        0.7039    0.3317    0.1869
Li    Li114        0.5439    0.3727    0.1855
Li    Li115        0.6722    0.3100    0.1849
Li    Li116        0.6807    0.3363    0.3159
Li    Li117        0.7094    0.3172    0.3164
Li    Li118        0.5815    0.3699    0.6910
Li    Li119        0.5782    0.3670    0.9331
Li    Li120        0.7092    0.3283    0.9519
Li    Li121        0.5413    0.3758    0.7951
Li    Li122        0.5761    0.3796    0.8109
Li    Li123        0.6712    0.3169    0.9310
Li    Li124        0.7030    0.4144    0.3228
Li    Li125        0.5483    0.4619    0.5572
Li    Li126        0.5479    0.4771    0.6757
Li    Li127        0.5821    0.4771    0.5697
Li    Li128        0.6648    0.4171    0.6872
Li    Li129        0.5710    0.5859    0.0562
Li    Li130        0.6676    0.5235    0.6760
Li    Li131        0.5541    0.5653    0.8151
Li    Li132        0.6723    0.6338    0.0570
Li    Li133        0.7015    0.6442    0.6896
Li    Li134        0.5414    0.6807    0.6812
Li    Li135        0.6668    0.6169    0.6822
Li    Li136        0.6619    0.6185    0.8050
Li    Li137        0.9554    0.1215    0.1933
Li    Li138        0.8250    0.2760    0.1964
Li    Li139        0.9618    0.2289    0.1930
Li    Li140        0.9231    0.2175    0.1779
Li    Li141        0.9202    0.2273    0.5529
Li    Li142        0.7997    0.2668    0.8114
Li    Li143        0.8007    0.2736    0.9379
Li    Li144        0.8282    0.3622    0.1832
Li    Li145        0.9484    0.3414    0.1804
Li    Li146        0.7925    0.3763    0.1786
Li    Li147        0.9201    0.3136    0.1862
Li    Li148        0.8298    0.3638    0.4433
Li    Li149        0.9472    0.3350    0.4386
Li    Li150        0.7923    0.3672    0.3018
Li    Li151        0.9272    0.3140    0.4381
Li    Li152        0.9551    0.3215    0.5701
Li    Li153        0.0056    0.1559    0.3066
Li    Li154        0.0106    0.1951    0.4334
Li    Li155        0.2449    0.1415    0.6967
Li    Li156        0.2453    0.1135    0.8171
Li    Li157        0.1146    0.2578    0.1932
Li    Li158        0.1162    0.2888    0.3197
Li    Li159        0.1201    0.2574    0.6901
Li    Li160        0.0084    0.2559    0.5540
Li    Li161        0.2381    0.2418    0.9399
Li    Li162        0.1175    0.2969    0.8196
Li    Li163        0.2450    0.3427    0.6963
Li    Li164        0.2444    0.3414    0.9421
Li    Li165        0.1326    0.6379    0.8077
Li    Li166        0.2420    0.6108    0.8205
Li    Li167        0.1185    0.6962    0.8211
Li    Li168        0.1287    0.7112    0.9279
Li    Li169        0.2584    0.2001    0.6856
Li    Li170        0.3832    0.1423    0.8059
Li    Li171        0.3716    0.1633    0.9408
Li    Li172        0.4933    0.1374    0.9432
Li    Li173        0.2563    0.1614    0.8035
Li    Li174        0.3687    0.1898    0.8229
Li    Li175        0.3795    0.1110    0.9303
Li    Li176        0.4980    0.2335    0.1944
Li    Li177        0.3843    0.2144    0.6785
Li    Li178        0.4924    0.2379    0.9502
Li    Li179        0.2536    0.2590    0.8085
Li    Li180        0.2561    0.2902    0.9314
Li    Li181        0.3777    0.2099    0.9300
Li    Li182        0.3690    0.3618    0.1975
Li    Li183        0.2562    0.3572    0.0547
Li    Li184        0.4951    0.3091    0.3227
Li    Li185        0.3699    0.3598    0.6965
Li    Li186        0.4964    0.3439    0.6958
Li    Li187        0.4934    0.3382    0.9452
Li    Li188        0.3815    0.3091    0.9284
Li    Li189        0.3642    0.4560    0.1907
Li    Li190        0.3832    0.4110    0.1798
Li    Li191        0.4966    0.4397    0.4430
Li    Li192        0.3797    0.4386    0.5527
Li    Li193        0.4954    0.4103    0.5689
Li    Li194        0.3803    0.5447    0.0558
Li    Li195        0.4917    0.5102    0.0705
Li    Li196        0.5006    0.5429    0.6930
Li    Li197        0.3713    0.5630    0.9427
Li    Li198        0.4936    0.5378    0.9410
Li    Li199        0.4937    0.5112    0.8122
Li    Li200        0.3693    0.6574    0.6959
Li    Li201        0.4964    0.6415    0.6867
Li    Li202        0.3768    0.6125    0.6799
Li    Li203        0.3770    0.6404    0.8056
Li    Li204        0.3719    0.6608    0.9428
Li    Li205        0.4876    0.6462    0.9395
Li    Li206        0.2583    0.6580    0.8054
Li    Li207        0.4936    0.6066    0.8190
Li    Li208        0.3796    0.7106    0.9293
Li    Li209        0.5084    0.1919    0.1775
Li    Li210        0.5026    0.1610    0.8049
Li    Li211        0.5145    0.2499    0.3126
Li    Li212        0.5072    0.2591    0.8032
Li    Li213        0.5061    0.2874    0.9324
Li    Li214        0.7510    0.3424    0.1926
Li    Li215        0.5059    0.3888    0.1825
Li    Li216        0.6334    0.3427    0.3061
Li    Li217        0.6196    0.3634    0.6960
Li    Li218        0.5099    0.3620    0.5589
Li    Li219        0.5079    0.3937    0.6797
Li    Li220        0.6240    0.3613    0.9451
Li    Li221        0.5069    0.3580    0.8029
Li    Li222        0.6324    0.3089    0.9320
Li    Li223        0.6165    0.4933    0.0679
Li    Li224        0.7416    0.4098    0.3236
Li    Li225        0.5109    0.4622    0.5578
Li    Li226        0.5070    0.4938    0.6794
Li    Li227        0.6395    0.4014    0.6882
Li    Li228        0.5067    0.4893    0.9337
Li    Li229        0.6370    0.5468    0.0624
Li    Li230        0.5083    0.5603    0.0540
Li    Li231        0.6189    0.5876    0.0673
Li    Li232        0.6160    0.5608    0.6907
Li    Li233        0.6293    0.5152    0.6816
Li    Li234        0.5052    0.5623    0.8035
Li    Li235        0.5057    0.5868    0.9267
Li    Li236        0.6353    0.6417    0.0594
Li    Li237        0.6230    0.6880    0.0691
Li    Li238        0.5074    0.6871    0.6792
Li    Li239        0.6328    0.6038    0.6819
Li    Li240        0.6292    0.6387    0.8016
Li    Li241        0.5030    0.6971    0.9290
Li    Li242        0.6303    0.7395    0.0557
Li    Li243        0.7458    0.7395    0.6944
Li    Li244        0.8687    0.1608    0.1936
Li    Li245        0.9913    0.1455    0.1914
Li    Li246        0.8771    0.2600    0.1933
Li    Li247        0.9936    0.2417    0.1950
Li    Li248        0.8835    0.2085    0.1799
Li    Li249        0.9956    0.2375    0.4496
Li    Li250        0.8684    0.3565    0.1884
Li    Li251        0.9914    0.3422    0.1952
Li    Li252        0.8818    0.3132    0.1767
Li    Li253        0.8718    0.3608    0.4472
Li    Li254        0.7526    0.3647    0.3098
Li    Li255        0.8766    0.3423    0.5612
Li    Li256        0.9970    0.3374    0.6975
Li    Li257        0.9952    0.3138    0.5716
Li    Li258        0.7558    0.6930    0.6761
Li    Li259        0.0368    0.1524    0.2706
Li    Li260        0.2151    0.1471    0.7331
Li    Li261        0.0426    0.2564    0.2682
Li    Li262        0.0389    0.2539    0.5212
Li    Li263        0.0395    0.2922    0.6415
Li    Li264        0.0815    0.2932    0.6002
Li    Li265        0.2089    0.2097    0.8522
Li    Li266        0.2162    0.3491    0.9757
Li    Li267        0.3344    0.1570    0.7313
Li    Li268        0.4591    0.1377    0.9775
Li    Li269        0.3320    0.1894    0.8531
Li    Li270        0.3367    0.2529    0.9824
Li    Li271        0.3339    0.3629    0.2308
Li    Li272        0.4136    0.3478    0.2699
Li    Li273        0.4587    0.3451    0.7327
Li    Li274        0.4133    0.3066    0.8952
Li    Li275        0.3370    0.4936    0.1100
Li    Li276        0.4547    0.5407    0.2280
Li    Li277        0.4560    0.5099    0.1036
Li    Li278        0.4169    0.5091    0.1448
Li    Li279        0.3393    0.6578    0.7366
Li    Li280        0.4645    0.6437    0.9837
Li    Li281        0.4568    0.6121    0.8531
Li    Li282        0.3297    0.6867    0.8573
Li    Li283        0.5853    0.2972    0.3549
Li    Li284        0.5858    0.4004    0.1052
Li    Li285        0.5406    0.3946    0.6417
Li    Li286        0.6585    0.3038    0.8925
Li    Li287        0.6658    0.4421    0.0220
Li    Li288        0.5826    0.4912    0.6044
Li    Li289        0.5862    0.5944    0.6083
Li    Li290        0.5382    0.6500    0.0204
Li    Li291        0.7082    0.6415    0.7339
Li    Li292        0.7090    0.6413    0.9792
Li    Li293        0.7946    0.2889    0.1504
Li    Li294        0.9178    0.2066    0.1457
Li    Li295        0.7923    0.2539    0.7746
Li    Li296        0.7889    0.2963    0.8953
Li    Li297        0.7908    0.3527    0.2679
Li    Li298        0.9573    0.3390    0.4783
Li    Li299        0.9614    0.3035    0.6048
Li    Li300        0.9147    0.3059    0.6444
Li    Li301        0.2450    0.0950    0.8400
Li    Li302        0.0038    0.1407    0.2808
Li    Li303        0.1282    0.1487    0.7227
Li    Li304        0.2462    0.1541    0.7191
Li    Li305        0.2539    0.1965    0.8409
Li    Li306        0.1336    0.1530    0.7808
Li    Li307        0.0033    0.2037    0.1561
Li    Li308        0.1178    0.2447    0.2222
Li    Li309        0.0054    0.1983    0.4004
Li    Li310        0.1250    0.2546    0.2776
Li    Li311        0.0062    0.2415    0.2823
Li    Li312        0.1184    0.2425    0.7174
Li    Li313        0.2385    0.2592    0.7170
Li    Li314        0.1265    0.2565    0.7782
Li    Li315        0.1141    0.3045    0.3426
Li    Li316        0.0030    0.3032    0.6548
Li    Li317        0.2345    0.3627    0.7145
Li    Li318        0.1210    0.3063    0.8460
Li    Li319        0.2350    0.5959    0.8408
Li    Li320        0.2460    0.5636    0.9672
Li    Li321        0.2521    0.6547    0.7263
Li    Li322        0.1214    0.6038    0.8465
Li    Li323        0.1284    0.6980    0.9052
Li    Li324        0.1269    0.6503    0.7854
Li    Li325        0.1136    0.7079    0.8466
Li    Li326        0.2533    0.1041    0.6550
Li    Li327        0.3709    0.1460    0.7241
Li    Li328        0.2543    0.1081    0.9043
Li    Li329        0.4980    0.1890    0.8465
Li    Li330        0.3803    0.1915    0.9047
Li    Li331        0.3841    0.1544    0.7810
Li    Li332        0.3734    0.1477    0.9655
Li    Li333        0.4939    0.1579    0.9715
Li    Li334        0.2523    0.1449    0.7804
Li    Li335        0.3771    0.2578    0.0320
Li    Li336        0.5050    0.2539    0.2249
Li    Li337        0.5018    0.2931    0.3438
Li    Li338        0.2589    0.2076    0.6587
Li    Li339        0.4977    0.2902    0.5950
Li    Li340        0.3713    0.2470    0.7216
Li    Li341        0.4993    0.2956    0.8407
Li    Li342        0.3714    0.2075    0.8450
Li    Li343        0.3827    0.2549    0.7787
Li    Li344        0.3653    0.2480    0.9617
Li    Li345        0.4887    0.2552    0.9670
Li    Li346        0.2563    0.2411    0.7735
Li    Li347        0.3748    0.4022    0.1559
Li    Li348        0.3595    0.3438    0.2197
Li    Li349        0.5031    0.3570    0.2199
Li    Li350        0.2517    0.3433    0.0328
Li    Li351        0.5006    0.3984    0.3452
Li    Li352        0.3764    0.3627    0.2813
Li    Li353        0.5004    0.3921    0.5968
Li    Li354        0.3815    0.3967    0.6553
Li    Li355        0.3758    0.3440    0.7224
Li    Li356        0.5019    0.3561    0.9689
Li    Li357        0.3770    0.4075    0.0933
Li    Li358        0.3797    0.4920    0.1569
Li    Li359        0.5008    0.4429    0.4734
Li    Li360        0.4963    0.4935    0.5961
Li    Li361        0.3666    0.5081    0.0963
Li    Li362        0.3814    0.5558    0.0326
Li    Li363        0.4980    0.5572    0.2148
Li    Li364        0.3791    0.5956    0.6574
Li    Li365        0.4952    0.5576    0.7152
Li    Li366        0.4939    0.5965    0.8431
Li    Li367        0.3838    0.5993    0.9055
Li    Li368        0.3671    0.6060    0.0866
Li    Li369        0.3770    0.6567    0.0293
Li    Li370        0.3714    0.6430    0.7197
Li    Li371        0.4988    0.6552    0.7127
Li    Li372        0.3797    0.6920    0.9069
Li    Li373        0.3779    0.6482    0.9648
Li    Li374        0.2538    0.6474    0.7801
Li    Li375        0.3794    0.7532    0.0314
Li    Li376        0.2512    0.7028    0.9040
Li    Li377        0.3754    0.7496    0.9694
Li    Li378        0.5063    0.1459    0.7797
Li    Li379        0.6289    0.2945    0.4043
Li    Li380        0.5131    0.2395    0.2849
Li    Li381        0.5022    0.2075    0.9074
Li    Li382        0.7466    0.2870    0.8433
Li    Li383        0.6303    0.3913    0.1564
Li    Li384        0.6160    0.3420    0.2211
Li    Li385        0.5063    0.3051    0.4053
Li    Li386        0.7421    0.3957    0.3462
Li    Li387        0.6215    0.3039    0.3472
Li    Li388        0.6311    0.3561    0.2844
Li    Li389        0.5004    0.3087    0.6562
Li    Li390        0.6230    0.3965    0.6550
Li    Li391        0.5033    0.3039    0.9117
Li    Li392        0.6202    0.3046    0.8498
Li    Li393        0.6293    0.3929    0.9081
Li    Li394        0.4995    0.3406    0.7799
Li    Li395        0.6206    0.4083    0.0910
Li    Li396        0.6287    0.4550    0.0314
Li    Li397        0.4991    0.4041    0.4072
Li    Li398        0.5081    0.4111    0.6563
Li    Li399        0.6291    0.5011    0.6468
Li    Li400        0.5089    0.4463    0.5336
Li    Li401        0.6088    0.4083    0.8392
Li    Li402        0.6134    0.5094    0.0929
Li    Li403        0.6275    0.5540    0.0333
Li    Li404        0.6298    0.5962    0.6562
Li    Li405        0.5021    0.5049    0.9076
Li    Li406        0.4985    0.5491    0.7808
Li    Li407        0.6344    0.6588    0.0356
Li    Li408        0.5075    0.6410    0.0325
Li    Li409        0.6219    0.6439    0.7153
Li    Li410        0.7405    0.6568    0.7128
Li    Li411        0.5022    0.5993    0.9012
Li    Li412        0.6191    0.6069    0.8427
Li    Li413        0.6268    0.6564    0.7782
Li    Li414        0.6274    0.7038    0.0946
Li    Li415        0.8724    0.1901    0.1561
Li    Li416        0.8714    0.1486    0.2199
Li    Li417        0.9952    0.1560    0.2171
Li    Li418        0.0016    0.1977    0.3446
Li    Li419        0.8820    0.1543    0.2800
Li    Li420        0.8813    0.2946    0.1562
Li    Li421        0.8618    0.2453    0.2088
Li    Li422        0.9974    0.2577    0.2247
Li    Li423        0.9979    0.2554    0.4728
Li    Li424        0.0005    0.2959    0.5934
Li    Li425        0.8965    0.2607    0.5355
Li    Li426        0.7545    0.3029    0.1604
Li    Li427        0.8730    0.3977    0.4024
Li    Li428        0.8652    0.3073    0.5901
Li    Li429        0.9967    0.3572    0.7171
Li    Li430        0.7546    0.3047    0.9060
Li    Li431        0.7614    0.4108    0.1519
Li    Li432        0.8632    0.4033    0.3456
Li    Li433        0.7520    0.6431    0.0292
Li    Li434        0.7569    0.7078    0.6513
