data_max_cluster
_audit_creation_method         'generated by data2config v5.5c'
 
_cell_length_a                  84.92680
_cell_length_b                  87.57400
_cell_length_c                  75.14280
_cell_angle_alpha               90.00000
_cell_angle_beta                96.73700
_cell_angle_gamma               90.00000
 
loop_
_symmetry_equiv_pos_as_xyz
'+x,+y,+z'
 
loop_
_atom_site_type_symbol
_atom_site_label
_atom_site_fract_x
_atom_site_fract_y
_atom_site_fract_z
Li    Li1        0.0894    0.3851    0.6589
Li    Li2        0.0803    0.3855    0.9114
Li    Li3        0.1606    0.4378    0.7171
Li    Li4        0.1659    0.4341    0.9623
Li    Li5        0.0937    0.4926    0.9149
Li    Li6        0.2136    0.4090    0.9131
Li    Li7        0.1610    0.5393    0.7249
Li    Li8        0.1702    0.5073    0.8385
Li    Li9        0.2927    0.3931    0.8360
Li    Li10        0.5797    0.3558    0.7879
Li    Li11        0.5384    0.3935    0.8431
Li    Li12        0.7095    0.4412    0.7925
Li    Li13        0.5872    0.4635    0.7876
Li    Li14        0.7133    0.5396    0.7839
Li    Li15        0.6660    0.5096    0.8409
Li    Li16        0.7848    0.3584    0.7040
Li    Li17        0.8371    0.3939    0.6611
Li    Li18        0.8355    0.3586    0.7913
Li    Li19        0.9660    0.4378    0.0360
Li    Li20        0.7832    0.4889    0.0840
Li    Li21        0.9673    0.4133    0.6605
Li    Li22        0.9068    0.4374    0.9668
Li    Li23        0.9165    0.5100    0.8307
Li    Li24        0.0694    0.3608    0.6863
Li    Li25        0.2065    0.3230    0.6982
Li    Li26        0.0445    0.3856    0.6862
Li    Li27        0.1993    0.4365    0.6882
Li    Li28        0.1696    0.4327    0.8075
Li    Li29        0.2009    0.4390    0.9368
Li    Li30        0.0563    0.4610    0.8131
Li    Li31        0.0433    0.4815    0.9292
Li    Li32        0.1707    0.4154    0.9334
Li    Li33        0.3217    0.3840    0.8026
Li    Li34        0.2923    0.4721    0.9305
Li    Li35        0.6992    0.3331    0.6848
Li    Li36        0.6907    0.3331    0.9330
Li    Li37        0.5891    0.3748    0.8294
Li    Li38        0.6767    0.3133    0.9472
Li    Li39        0.5447    0.4856    0.0602
Li    Li40        0.5756    0.4823    0.0630
Li    Li41        0.6780    0.4310    0.8096
Li    Li42        0.5786    0.4631    0.9363
Li    Li43        0.6677    0.5168    0.1778
Li    Li44        0.6712    0.5355    0.8058
Li    Li45        0.7075    0.5159    0.8136
Li    Li46        0.8318    0.3685    0.6868
Li    Li47        0.9249    0.3354    0.8132
Li    Li48        0.8321    0.3746    0.9369
Li    Li49        0.8080    0.3678    0.8118
Li    Li50        0.8272    0.3972    0.8182
Li    Li51        0.7927    0.4643    0.0544
Li    Li52        0.9322    0.4146    0.6851
Li    Li53        0.8219    0.4642    0.9391
Li    Li54        0.7991    0.4631    0.8138
Li    Li55        0.7970    0.4899    0.9367
Li    Li56        0.9168    0.4220    0.9238
Li    Li57        0.9470    0.5371    0.9342
Li    Li58        0.9453    0.5120    0.8109
Li    Li59        0.2448    0.3448    0.6940
Li    Li60        0.2429    0.4423    0.6943
Li    Li61        0.1307    0.4385    0.8036
Li    Li62        0.2447    0.4424    0.9449
Li    Li63        0.0051    0.4639    0.8045
Li    Li64        0.0073    0.4965    0.9339
Li    Li65        0.1373    0.5398    0.8133
Li    Li66        0.2442    0.5388    0.9416
Li    Li67        0.2454    0.5097    0.8250
Li    Li68        0.2583    0.3908    0.6764
Li    Li69        0.3655    0.3864    0.8210
Li    Li70        0.2525    0.4595    0.8036
Li    Li71        0.2556    0.4922    0.9301
Li    Li72        0.7423    0.3387    0.6930
Li    Li73        0.7422    0.3364    0.9433
Li    Li74        0.5063    0.3633    0.8088
Li    Li75        0.6188    0.4869    0.0693
Li    Li76        0.6288    0.4421    0.8100
Li    Li77        0.6161    0.4640    0.9420
Li    Li78        0.7421    0.4381    0.9485
Li    Li79        0.6189    0.4934    0.8219
Li    Li80        0.6312    0.5442    0.0516
Li    Li81        0.6335    0.5386    0.8049
Li    Li82        0.7498    0.5104    0.8178
Li    Li83        0.6287    0.5086    0.9313
Li    Li84        0.8701    0.3620    0.6972
Li    Li85        0.7597    0.3897    0.6798
Li    Li86        0.8765    0.3431    0.8070
Li    Li87        0.8699    0.3571    0.9477
Li    Li88        0.7599    0.3577    0.8017
Li    Li89        0.7547    0.3895    0.9289
Li    Li90        0.8812    0.4098    0.6821
Li    Li91        0.8768    0.4395    0.8014
Li    Li92        0.8681    0.4639    0.9487
Li    Li93        0.7563    0.4925    0.9333
Li    Li94        0.9929    0.5415    0.9408
Li    Li95        0.9912    0.5062    0.8180
Li    Li96        0.2105    0.4450    0.7293
Li    Li97        0.1667    0.4089    0.6437
Li    Li98        0.0384    0.4496    0.7686
Li    Li99        0.2121    0.4422    0.9820
Li    Li100        0.2092    0.4127    0.8547
Li    Li101        0.0817    0.4932    0.8542
Li    Li102        0.1656    0.5494    0.7757
Li    Li103        0.2093    0.5113    0.8573
Li    Li104        0.2883    0.3577    0.7643
Li    Li105        0.5826    0.3896    0.8552
Li    Li106        0.7079    0.4086    0.8572
Li    Li107        0.6624    0.5057    0.1378
Li    Li108        0.7085    0.5087    0.8567
Li    Li109        0.7909    0.3569    0.7654
Li    Li110        0.9137    0.4433    0.0194
Li    Li111        0.8386    0.4528    0.9824
Li    Li112        0.9135    0.5468    0.7718
Li    Li113        0.1323    0.3974    0.6547
Li    Li114        0.2475    0.3550    0.7187
Li    Li115        0.2448    0.3930    0.8438
Li    Li116        0.1283    0.3975    0.9074
Li    Li117        0.0039    0.4471    0.0308
Li    Li118        0.0040    0.4048    0.6577
Li    Li119        0.1211    0.4450    0.7158
Li    Li120        0.2446    0.4962    0.8466
Li    Li121        0.1203    0.4029    0.8404
Li    Li122        0.1331    0.4539    0.7795
Li    Li123        0.2455    0.4548    0.9713
Li    Li124        0.0043    0.4487    0.7776
Li    Li125        0.0050    0.5054    0.9074
Li    Li126        0.1282    0.5010    0.8434
Li    Li127        0.1324    0.5556    0.7836
Li    Li128        0.2551    0.3063    0.6582
Li    Li129        0.2559    0.4442    0.0279
Li    Li130        0.2570    0.4075    0.6531
Li    Li131        0.2502    0.4115    0.9033
Li    Li132        0.2559    0.5094    0.9076
Li    Li133        0.7434    0.3523    0.7242
Li    Li134        0.7465    0.3918    0.8451
Li    Li135        0.7509    0.3533    0.9650
Li    Li136        0.5147    0.3377    0.7863
Li    Li137        0.6304    0.4937    0.1600
Li    Li138        0.7476    0.4965    0.8445
Li    Li139        0.6218    0.4081    0.8454
Li    Li140        0.6331    0.4909    0.9108
Li    Li141        0.6309    0.4556    0.7863
Li    Li142        0.7462    0.4562    0.9716
Li    Li143        0.6194    0.5060    0.0946
Li    Li144        0.6271    0.5625    0.0277
Li    Li145        0.6224    0.5029    0.8471
Li    Li146        0.6234    0.5459    0.9646
Li    Li147        0.8759    0.3982    0.6582
Li    Li148        0.8712    0.3464    0.7172
Li    Li149        0.7565    0.3089    0.9039
Li    Li150        0.8790    0.3090    0.8430
Li    Li151        0.8838    0.3922    0.9118
Li    Li152        0.8780    0.3563    0.7850
Li    Li153        0.7547    0.3386    0.7764
Li    Li154        0.8800    0.4547    0.0297
Li    Li155        0.7524    0.4421    0.0365
Li    Li156        0.8628    0.4404    0.7237
Li    Li157        0.9908    0.4549    0.7234
Li    Li158        0.7611    0.4080    0.9100
Li    Li159        0.9945    0.4945    0.8451
Li    Li160        0.8727    0.4074    0.8466
Li    Li161        0.8835    0.4960    0.9067
Li    Li162        0.8783    0.4565    0.7781
Li    Li163        0.8672    0.4477    0.9691
Li    Li164        0.7504    0.4414    0.7836
Li    Li165        0.8669    0.5422    0.7120
Li    Li166        0.7542    0.5033    0.9095
Li    Li167        0.8767    0.5533    0.7765
Li    Li168        0.7523    0.5444    0.7756
