data_max_cluster
_audit_creation_method         'generated by data2config v5.5c'
 
_cell_length_a                  84.92680
_cell_length_b                  87.57400
_cell_length_c                  75.14280
_cell_angle_alpha               90.00000
_cell_angle_beta                96.73700
_cell_angle_gamma               90.00000
 
loop_
_symmetry_equiv_pos_as_xyz
'+x,+y,+z'
 
loop_
_atom_site_type_symbol
_atom_site_label
_atom_site_fract_x
_atom_site_fract_y
_atom_site_fract_z
Li    Li1        0.2114    0.0360    0.2875
Li    Li2        0.1008    0.0647    0.2916
Li    Li3        0.1591    0.0088    0.3301
Li    Li4        0.0363    0.0938    0.3350
Li    Li5        0.2097    0.0102    0.4142
Li    Li6        0.2088    0.1414    0.2875
Li    Li7        0.2139    0.1147    0.4071
Li    Li8        0.0868    0.4934    0.4150
Li    Li9        0.1679    0.5283    0.4650
Li    Li10        0.0801    0.5907    0.4098
Li    Li11        0.0403    0.6574    0.2182
Li    Li12        0.0863    0.6866    0.4101
Li    Li13        0.2131    0.7372    0.5324
Li    Li14        0.0830    0.8594    0.2850
Li    Li15        0.2053    0.9517    0.2819
Li    Li16        0.1604    0.9136    0.3427
Li    Li17        0.4570    0.0411    0.2870
Li    Li18        0.3376    0.0574    0.2823
Li    Li19        0.4125    0.0174    0.3364
Li    Li20        0.2858    0.1553    0.2193
Li    Li21        0.4111    0.8403    0.7095
Li    Li22        0.3348    0.8859    0.6598
Li    Li23        0.2917    0.9630    0.4664
Li    Li24        0.3338    0.9858    0.4097
Li    Li25        0.3384    0.9639    0.5320
Li    Li26        0.4176    0.9120    0.5926
Li    Li27        0.8398    0.5904    0.4079
Li    Li28        0.8370    0.6888    0.4140
Li    Li29        0.9159    0.6055    0.3386
Li    Li30        0.9625    0.6105    0.4110
Li    Li31        0.9636    0.7066    0.1598
Li    Li32        0.9603    0.9420    0.2846
Li    Li33        0.1674    0.0297    0.3055
Li    Li34        0.2128    0.0292    0.4421
Li    Li35        0.0448    0.0688    0.3065
Li    Li36        0.1697    0.1313    0.3075
Li    Li37        0.0563    0.5671    0.3083
Li    Li38        0.0751    0.5801    0.3167
Li    Li39        0.1635    0.5142    0.4230
Li    Li40        0.0492    0.7876    0.4403
Li    Li41        0.2070    0.7179    0.5670
Li    Li42        0.0460    0.8759    0.3115
Li    Li43        0.0821    0.8853    0.3210
Li    Li44        0.0474    0.8587    0.5531
Li    Li45        0.1851    0.9353    0.3173
Li    Li46        0.2133    0.9301    0.4477
Li    Li47        0.0413    0.9651    0.3121
Li    Li48        0.0763    0.9848    0.3149
Li    Li49        0.4512    0.0349    0.1877
Li    Li50        0.3028    0.0639    0.3208
Li    Li51        0.4481    0.0143    0.3122
Li    Li52        0.2876    0.1687    0.3009
Li    Li53        0.3007    0.7623    0.5686
Li    Li54        0.3357    0.7765    0.5716
Li    Li55        0.3331    0.8758    0.4402
Li    Li56        0.2991    0.8887    0.4356
Li    Li57        0.4483    0.8200    0.5577
Li    Li58        0.3247    0.8886    0.5645
Li    Li59        0.3225    0.9640    0.4344
Li    Li60        0.2937    0.9686    0.3120
Li    Li61        0.3186    0.9885    0.3079
Li    Li62        0.4263    0.9364    0.5644
Li    Li63        0.2939    0.9692    0.5502
Li    Li64        0.5477    0.7653    0.5640
Li    Li65        0.9572    0.6219    0.2008
Li    Li66        0.9241    0.6135    0.1905
Li    Li67        0.8309    0.6628    0.4397
Li    Li68        0.9571    0.6328    0.4430
Li    Li69        0.9192    0.6191    0.4388
Li    Li70        0.9604    0.7235    0.1988
Li    Li71        0.9588    0.7276    0.4461
Li    Li72        0.9231    0.8319    0.5558
Li    Li73        0.9578    0.8328    0.5657
Li    Li74        0.1309    0.0407    0.3049
Li    Li75        0.9986    0.0567    0.3110
Li    Li76        0.2476    0.0114    0.3222
Li    Li77        0.1168    0.0934    0.3201
Li    Li78        0.1213    0.5587    0.4389
Li    Li79        0.9999    0.5596    0.3047
Li    Li80        0.0099    0.5912    0.4290
Li    Li81        0.0054    0.6930    0.1837
Li    Li82        0.1366    0.6424    0.3066
Li    Li83        0.1138    0.6584    0.4394
Li    Li84        0.0010    0.6560    0.3059
Li    Li85        0.1327    0.6132    0.4316
Li    Li86        0.0062    0.7857    0.4285
Li    Li87        0.1272    0.7075    0.4237
Li    Li88        0.2442    0.7060    0.5667
Li    Li89        0.0098    0.8547    0.3046
Li    Li90        0.1203    0.8926    0.3208
Li    Li91        0.0074    0.8541    0.5534
Li    Li92        0.1233    0.9357    0.2968
Li    Li93        0.1222    0.9864    0.3149
Li    Li94        0.1333    0.9078    0.4327
Li    Li95        0.3777    0.0440    0.2948
Li    Li96        0.4937    0.0396    0.4370
Li    Li97        0.2575    0.0592    0.3055
Li    Li98        0.4917    0.0013    0.3204
Li    Li99        0.2500    0.1589    0.3116
Li    Li100        0.2551    0.7618    0.5508
Li    Li101        0.3728    0.8589    0.4450
Li    Li102        0.2580    0.8861    0.4341
Li    Li103        0.3681    0.8718    0.6940
Li    Li104        0.4976    0.8041    0.5700
Li    Li105        0.3669    0.8928    0.5663
Li    Li106        0.3835    0.8066    0.6760
Li    Li107        0.3684    0.9621    0.4460
Li    Li108        0.3834    0.9043    0.4350
Li    Li109        0.3871    0.9329    0.5592
Li    Li110        0.2673    0.9505    0.5623
Li    Li111        0.5038    0.7602    0.5576
Li    Li112        0.9938    0.6413    0.1903
Li    Li113        0.8840    0.6094    0.1834
Li    Li114        0.9958    0.6125    0.3225
Li    Li115        0.8766    0.6082    0.4342
Li    Li116        0.9921    0.7409    0.4451
Li    Li117        0.9928    0.8458    0.4442
Li    Li118        0.9945    0.8113    0.3170
Li    Li119        0.8820    0.8340    0.5575
Li    Li120        0.9948    0.8103    0.5680
Li    Li121        0.9932    0.9055    0.5673
Li    Li122        0.1654    0.0448    0.2735
Li    Li123        0.0463    0.0879    0.3968
Li    Li124        0.0828    0.0881    0.3540
Li    Li125        0.2079    0.1072    0.3527
Li    Li126        0.0790    0.5925    0.3539
Li    Li127        0.0826    0.6560    0.4770
Li    Li128        0.1657    0.7428    0.5158
Li    Li129        0.0439    0.8588    0.2709
Li    Li130        0.2075    0.9059    0.3554
Li    Li131        0.1659    0.9073    0.3968
Li    Li132        0.4159    0.0407    0.2651
Li    Li133        0.4170    0.8361    0.5198
Li    Li134        0.3374    0.8978    0.6066
Li    Li135        0.2889    0.9905    0.3928
Li    Li136        0.3367    0.9945    0.3619
Li    Li137        0.2939    0.9970    0.6435
Li    Li138        0.5388    0.7944    0.6448
Li    Li139        0.9667    0.6025    0.3602
Li    Li140        0.9610    0.7439    0.2324
Li    Li141        0.9553    0.8101    0.6039
Li    Li142        0.2477    0.0952    0.3444
Li    Li143        0.0035    0.0522    0.2798
Li    Li144        0.2454    0.1525    0.2189
Li    Li145        0.1221    0.1103    0.3480
Li    Li146        0.1261    0.4934    0.4021
Li    Li147        0.1213    0.5072    0.3436
Li    Li148        0.1337    0.5945    0.4087
Li    Li149        0.0007    0.5448    0.2799
Li    Li150        0.0031    0.6090    0.4045
Li    Li151        0.1231    0.6062    0.3464
Li    Li152        0.1220    0.6449    0.4637
Li    Li153        0.9998    0.6447    0.2789
Li    Li154        0.2443    0.6972    0.5952
Li    Li155        0.9980    0.7075    0.4047
Li    Li156        0.1162    0.7389    0.4692
Li    Li157        0.0006    0.7481    0.2765
Li    Li158        0.2542    0.7957    0.5934
Li    Li159        0.1299    0.7550    0.5293
Li    Li160        0.0069    0.8064    0.4086
Li    Li161        0.2450    0.8992    0.3419
Li    Li162        0.1276    0.8935    0.4120
Li    Li163        0.0053    0.8410    0.5261
Li    Li164        0.2444    0.9967    0.3421
Li    Li165        0.1207    0.9059    0.3470
Li    Li166        0.1371    0.9600    0.2789
Li    Li167        0.1193    0.9469    0.4606
Li    Li168        0.2435    0.9567    0.4681
Li    Li169        0.0009    0.9451    0.2826
Li    Li170        0.2524    0.9929    0.5916
Li    Li171        0.0151    0.9445    0.5370
Li    Li172        0.3713    0.0452    0.2187
Li    Li173        0.4885    0.0588    0.2249
Li    Li174        0.2524    0.0039    0.4055
Li    Li175        0.3707    0.0095    0.3424
Li    Li176        0.2571    0.0423    0.2830
Li    Li177        0.2485    0.1373    0.2819
Li    Li178        0.5011    0.7905    0.5956
Li    Li179        0.2500    0.7462    0.5308
Li    Li180        0.4989    0.8551    0.4734
Li    Li181        0.3748    0.7980    0.6033
Li    Li182        0.3783    0.8526    0.5332
Li    Li183        0.3760    0.8463    0.7159
Li    Li184        0.2612    0.9090    0.4068
Li    Li185        0.4922    0.9930    0.3454
Li    Li186        0.3709    0.9487    0.4683
Li    Li187        0.2535    0.9387    0.2840
Li    Li188        0.3669    0.9095    0.5920
Li    Li189        0.3791    0.9651    0.5313
Li    Li190        0.2601    0.9399    0.5322
Li    Li191        0.4971    0.0047    0.4048
Li    Li192        0.5063    0.0438    0.2794
Li    Li193        0.4979    0.8465    0.5313
Li    Li194        0.9932    0.0898    0.3429
Li    Li195        0.8821    0.5936    0.1633
Li    Li196        0.9908    0.5566    0.2188
Li    Li197        0.9949    0.5892    0.3423
Li    Li198        0.9924    0.5585    0.4681
Li    Li199        0.8697    0.6455    0.2187
Li    Li200        0.9961    0.6508    0.2172
Li    Li201        0.9942    0.6951    0.3423
Li    Li202        0.8677    0.6016    0.3416
Li    Li203        0.8831    0.6572    0.2838
Li    Li204        0.8736    0.6471    0.4707
Li    Li205        0.9939    0.6504    0.4668
Li    Li206        0.8748    0.6509    0.5342
Li    Li207        0.9995    0.8013    0.3444
Li    Li208        0.9966    0.7578    0.4634
Li    Li209        0.0019    0.7936    0.5937
Li    Li210        0.9946    0.8605    0.4692
Li    Li211        0.9929    0.8921    0.5888
Li    Li212        0.8770    0.8531    0.5344
