data_max_cluster
_audit_creation_method         'generated by data2config v5.5c'
 
_cell_length_a                  84.92680
_cell_length_b                  87.57400
_cell_length_c                  75.14280
_cell_angle_alpha               90.00000
_cell_angle_beta                96.73700
_cell_angle_gamma               90.00000
 
loop_
_symmetry_equiv_pos_as_xyz
'+x,+y,+z'
 
loop_
_atom_site_type_symbol
_atom_site_label
_atom_site_fract_x
_atom_site_fract_y
_atom_site_fract_z
Li    Li1        0.0933    0.0833    0.1620
Li    Li2        0.1559    0.0091    0.0887
Li    Li3        0.1947    0.0056    0.1544
Li    Li4        0.0419    0.0622    0.4629
Li    Li5        0.0933    0.0515    0.2924
Li    Li6        0.1645    0.0132    0.3304
Li    Li7        0.0330    0.0853    0.3374
Li    Li8        0.2162    0.0062    0.4013
Li    Li9        0.0373    0.0650    0.9599
Li    Li10        0.0891    0.0852    0.9170
Li    Li11        0.0416    0.0798    0.8305
Li    Li12        0.2189    0.0104    0.9151
Li    Li13        0.1644    0.1336    0.2102
Li    Li14        0.2211    0.1325    0.2690
Li    Li15        0.1547    0.1328    0.4645
Li    Li16        0.0880    0.1929    0.4145
Li    Li17        0.0310    0.1935    0.3275
Li    Li18        0.2120    0.1110    0.4244
Li    Li19        0.1644    0.1406    0.7058
Li    Li20        0.0956    0.1834    0.6611
Li    Li21        0.2078    0.1385    0.7929
Li    Li22        0.0420    0.2878    0.0723
Li    Li23        0.1664    0.2359    0.4672
Li    Li24        0.2080    0.2189    0.3966
Li    Li25        0.0369    0.2561    0.7124
Li    Li26        0.1674    0.2390    0.7079
Li    Li27        0.0871    0.2561    0.5396
Li    Li28        0.1525    0.2146    0.5958
Li    Li29        0.0289    0.2813    0.5834
Li    Li30        0.2169    0.2373    0.7920
Li    Li31        0.0355    0.2906    0.8305
Li    Li32        0.0386    0.3858    0.0899
Li    Li33        0.0398    0.3654    0.9537
Li    Li34        0.0825    0.3679    0.8934
Li    Li35        0.0931    0.4875    0.1601
Li    Li36        0.1726    0.4172    0.1048
Li    Li37        0.2127    0.4183    0.1610
Li    Li38        0.0261    0.4594    0.4643
Li    Li39        0.0339    0.4864    0.3380
Li    Li40        0.0366    0.4893    0.5830
Li    Li41        0.1617    0.4350    0.9551
Li    Li42        0.0872    0.4867    0.9142
Li    Li43        0.2095    0.4126    0.9010
Li    Li44        0.2162    0.5124    0.1597
Li    Li45        0.0382    0.5556    0.4544
Li    Li46        0.1594    0.5417    0.4587
Li    Li47        0.0883    0.5817    0.4137
Li    Li48        0.1710    0.5438    0.7065
Li    Li49        0.0913    0.5830    0.6624
Li    Li50        0.1533    0.5152    0.5921
Li    Li51        0.0278    0.5631    0.9604
Li    Li52        0.0828    0.5865    0.9251
Li    Li53        0.1453    0.5173    0.8519
Li    Li54        0.2089    0.6377    0.0427
Li    Li55        0.0251    0.6729    0.2186
Li    Li56        0.0282    0.6804    0.0866
Li    Li57        0.2128    0.6326    0.2918
Li    Li58        0.0906    0.6617    0.2931
Li    Li59        0.0431    0.6871    0.3364
Li    Li60        0.0432    0.6681    0.7142
Li    Li61        0.1687    0.6207    0.5988
Li    Li62        0.2157    0.6099    0.6620
Li    Li63        0.2071    0.6409    0.7948
Li    Li64        0.0857    0.6678    0.7702
Li    Li65        0.1670    0.6143    0.8404
Li    Li66        0.0318    0.7683    0.2305
Li    Li67        0.0891    0.7541    0.0475
Li    Li68        0.1622    0.7614    0.4489
Li    Li69        0.2049    0.7160    0.4213
Li    Li70        0.2033    0.7398    0.5321
Li    Li71        0.1606    0.7077    0.5797
Li    Li72        0.2096    0.7110    0.6819
Li    Li73        0.2130    0.7167    0.9073
Li    Li74        0.2143    0.8343    0.0234
Li    Li75        0.2188    0.8156    0.1549
Li    Li76        0.1565    0.8349    0.4610
Li    Li77        0.0964    0.8661    0.5388
Li    Li78        0.0411    0.8861    0.5922
Li    Li79        0.0477    0.8848    0.8438
Li    Li80        0.0960    0.9863    0.4052
Li    Li81        0.0263    0.9606    0.7009
Li    Li82        0.2100    0.9120    0.6670
Li    Li83        0.2096    0.9426    0.7937
Li    Li84        0.0921    0.9687    0.7879
Li    Li85        0.1006    0.9905    0.9140
Li    Li86        0.0254    0.0059    0.8280
Li    Li87        0.3323    0.0958    0.1396
Li    Li88        0.4611    0.0393    0.2899
Li    Li89        0.4031    0.0127    0.3331
Li    Li90        0.3409    0.0651    0.7934
Li    Li91        0.2767    0.0888    0.8355
Li    Li92        0.4136    0.1486    0.2071
Li    Li93        0.4110    0.1148    0.0973
Li    Li94        0.2845    0.1757    0.7323
Li    Li95        0.3439    0.1854    0.6677
Li    Li96        0.4556    0.1149    0.9014
Li    Li97        0.2883    0.2672    0.2090
Li    Li98        0.3375    0.2816    0.1581
Li    Li99        0.4678    0.2380    0.7963
Li    Li100        0.4128    0.2373    0.9669
Li    Li101        0.2925    0.2851    0.8331
Li    Li102        0.4588    0.2167    0.9215
Li    Li103        0.4573    0.3451    0.0237
Li    Li104        0.2911    0.3581    0.2053
Li    Li105        0.4137    0.3380    0.2234
Li    Li106        0.3457    0.3571    0.0340
Li    Li107        0.4025    0.3033    0.0833
Li    Li108        0.4597    0.3113    0.1532
Li    Li109        0.3997    0.4320    0.2201
Li    Li110        0.3359    0.4656    0.0406
Li    Li111        0.3311    0.4820    0.1648
Li    Li112        0.3375    0.4636    0.2713
Li    Li113        0.4672    0.5477    0.0350
Li    Li114        0.3386    0.5652    0.0411
Li    Li115        0.3452    0.5886    0.1579
Li    Li116        0.2939    0.5868    0.3474
Li    Li117        0.4116    0.5368    0.7108
Li    Li118        0.4539    0.6287    0.0368
Li    Li119        0.3327    0.6902    0.1679
Li    Li120        0.4143    0.6198    0.1064
Li    Li121        0.4581    0.6118    0.1727
Li    Li122        0.3414    0.6668    0.2902
Li    Li123        0.4748    0.6389    0.5499
Li    Li124        0.4133    0.6371    0.7108
Li    Li125        0.3475    0.6838    0.6570
Li    Li126        0.4049    0.6205    0.9785
Li    Li127        0.4663    0.6070    0.9103
Li    Li128        0.4468    0.7359    0.0391
Li    Li129        0.3367    0.7611    0.2874
Li    Li130        0.4003    0.7148    0.3506
Li    Li131        0.4158    0.7418    0.7084
Li    Li132        0.3341    0.7598    0.5380
Li    Li133        0.2863    0.7871    0.5966
Li    Li134        0.4619    0.7116    0.6626
Li    Li135        0.3393    0.7863    0.9055
Li    Li136        0.4057    0.8406    0.2067
Li    Li137        0.3458    0.8622    0.0301
Li    Li138        0.2842    0.8888    0.0891
Li    Li139        0.2819    0.8583    0.7025
Li    Li140        0.3915    0.8442    0.7097
Li    Li141        0.3336    0.8935    0.6719
Li    Li142        0.2864    0.9713    0.2177
Li    Li143        0.4164    0.9415    0.2104
Li    Li144        0.3345    0.9794    0.1537
Li    Li145        0.2862    0.9615    0.4601
Li    Li146        0.3478    0.9803    0.4070
Li    Li147        0.4092    0.9134    0.3435
Li    Li148        0.4658    0.9390    0.5274
Li    Li149        0.3337    0.9625    0.5405
Li    Li150        0.4155    0.9272    0.6010
Li    Li151        0.4141    0.9108    0.8322
Li    Li152        0.6743    0.0379    0.2213
Li    Li153        0.5804    0.0612    0.0412
Li    Li154        0.5914    0.0847    0.1482
Li    Li155        0.6544    0.0182    0.0779
Li    Li156        0.5222    0.0555    0.9640
Li    Li157        0.7102    0.1395    0.0440
Li    Li158        0.5425    0.1894    0.0820
Li    Li159        0.5388    0.1575    0.9540
Li    Li160        0.5875    0.1704    0.7906
Li    Li161        0.7063    0.1099    0.8986
Li    Li162        0.5428    0.2883    0.0959
Li    Li163        0.7198    0.2179    0.4066
Li    Li164        0.5911    0.2964    0.9166
Li    Li165        0.6545    0.3362    0.2231
Li    Li166        0.6668    0.3083    0.0778
Li    Li167        0.7206    0.3195    0.1647
Li    Li168        0.5436    0.3624    0.7126
Li    Li169        0.5904    0.3821    0.6597
Li    Li170        0.5355    0.3635    0.9552
Li    Li171        0.5944    0.3638    0.7827
Li    Li172        0.7135    0.3222    0.8942
Li    Li173        0.5499    0.4826    0.1013
Li    Li174        0.7214    0.4344    0.7857
Li    Li175        0.5878    0.4626    0.7972
Li    Li176        0.7139    0.5382    0.0511
Li    Li177        0.5908    0.5837    0.1590
Li    Li178        0.5288    0.5837    0.3357
Li    Li179        0.5291    0.5626    0.7034
Li    Li180        0.7108    0.5390    0.7878
Li    Li181        0.5419    0.5633    0.9749
Li    Li182        0.5834    0.5917    0.9132
Li    Li183        0.6609    0.5150    0.8476
Li    Li184        0.6710    0.6404    0.2091
Li    Li185        0.6614    0.6438    0.4597
Li    Li186        0.7156    0.6357    0.5375
Li    Li187        0.5971    0.6632    0.5345
Li    Li188        0.5428    0.6880    0.5859
Li    Li189        0.7178    0.6138    0.6613
Li    Li190        0.7141    0.6324    0.7872
Li    Li191        0.6648    0.7312    0.2164
Li    Li192        0.7044    0.7070    0.4063
Li    Li193        0.6669    0.7350    0.7143
Li    Li194        0.6518    0.7161    0.5848
Li    Li195        0.5830    0.7680    0.7812
Li    Li196        0.5802    0.8755    0.0284
Li    Li197        0.5919    0.8819    0.1620
Li    Li198        0.5372    0.8935    0.0858
Li    Li199        0.7123    0.8323    0.6492
Li    Li200        0.7076    0.8378    0.7897
Li    Li201        0.5933    0.8630    0.7992
Li    Li202        0.5945    0.8803    0.9037
Li    Li203        0.6584    0.8165    0.8394
Li    Li204        0.6000    0.9876    0.1408
Li    Li205        0.5496    0.9805    0.0815
Li    Li206        0.5467    0.9611    0.7117
Li    Li207        0.6648    0.9292    0.7173
Li    Li208        0.5717    0.9885    0.6480
Li    Li209        0.6691    0.9097    0.8438
Li    Li210        0.7038    0.9097    0.9116
Li    Li211        0.8452    0.0688    0.2746
Li    Li212        0.9087    0.0362    0.9614
Li    Li213        0.9160    0.1420    0.2178
Li    Li214        0.8318    0.1636    0.0368
Li    Li215        0.9629    0.1476    0.2961
Li    Li216        0.9025    0.1241    0.4875
Li    Li217        0.8310    0.1900    0.4097
Li    Li218        0.9142    0.1141    0.3307
Li    Li219        0.9213    0.1438    0.7276
Li    Li220        0.7848    0.1835    0.5815
Li    Li221        0.9613    0.2367    0.0285
Li    Li222        0.9098    0.2491    0.2250
Li    Li223        0.8394    0.2655    0.0369
Li    Li224        0.8990    0.2039    0.0949
Li    Li225        0.9150    0.2418    0.7058
Li    Li226        0.9192    0.2128    0.5798
Li    Li227        0.7851    0.2926    0.5773
Li    Li228        0.9151    0.2356    0.9689
Li    Li229        0.7994    0.2851    0.8351
Li    Li230        0.9653    0.3382    0.0247
Li    Li231        0.9085    0.3100    0.0803
Li    Li232        0.9659    0.3341    0.5355
Li    Li233        0.7862    0.3618    0.7132
Li    Li234        0.9130    0.3097    0.5823
Li    Li235        0.7830    0.3882    0.5788
Li    Li236        0.8204    0.3583    0.7882
Li    Li237        0.7908    0.3857    0.8404
Li    Li238        0.8319    0.4630    0.0233
Li    Li239        0.7880    0.4872    0.0763
Li    Li240        0.9208    0.4354    0.4593
Li    Li241        0.8316    0.4637    0.2865
Li    Li242        0.9203    0.4139    0.3451
Li    Li243        0.9642    0.4126    0.9194
Li    Li244        0.8440    0.5894    0.4123
Li    Li245        0.9559    0.5221    0.4223
Li    Li246        0.9706    0.5251    0.5223
Li    Li247        0.9642    0.5167    0.6643
Li    Li248        0.7772    0.5539    0.9606
Li    Li249        0.9114    0.5197    0.8427
Li    Li250        0.7848    0.6643    0.1990
Li    Li251        0.8276    0.6850    0.1531
Li    Li252        0.9139    0.6144    0.3400
Li    Li253        0.8445    0.6930    0.6590
Li    Li254        0.7743    0.6810    0.5926
Li    Li255        0.9108    0.6285    0.9660
Li    Li256        0.8402    0.6711    0.7809
Li    Li257        0.9062    0.6168    0.8378
Li    Li258        0.7792    0.6882    0.8350
Li    Li259        0.9594    0.6133    0.9185
Li    Li260        0.7817    0.7497    0.2084
Li    Li261        0.9216    0.7344    0.2016
Li    Li262        0.8472    0.7859    0.1513
Li    Li263        0.9633    0.7080    0.1666
Li    Li264        0.8472    0.7668    0.7877
Li    Li265        0.9159    0.8368    0.2114
Li    Li266        0.9123    0.8088    0.0786
Li    Li267        0.9639    0.8086    0.1566
Li    Li268        0.9105    0.8176    0.8505
Li    Li269        0.8315    0.9626    0.0385
Li    Li270        0.9096    0.9311    0.7317
Li    Li271        0.0372    0.0611    0.0696
Li    Li272        0.0521    0.0810    0.1974
Li    Li273        0.2039    0.0072    0.0554
Li    Li274        0.0736    0.0859    0.0609
Li    Li275        0.1692    0.0074    0.1936
Li    Li276        0.1738    0.0380    0.3216
Li    Li277        0.0808    0.0589    0.4313
Li    Li278        0.0267    0.0578    0.3186
Li    Li279        0.2025    0.0077    0.3047
Li    Li280        0.0792    0.0876    0.3118
Li    Li281        0.1674    0.0090    0.4360
Li    Li282        0.0799    0.0857    0.5425
Li    Li283        0.1026    0.0577    0.9247
Li    Li284        0.0438    0.0864    0.9457
Li    Li285        0.0768    0.0835    0.7998
Li    Li286        0.1726    0.0124    0.9379
Li    Li287        0.2035    0.1409    0.1852
Li    Li288        0.1578    0.0996    0.1826
Li    Li289        0.1689    0.1362    0.3242
Li    Li290        0.2041    0.1338    0.4261
Li    Li291        0.0277    0.1566    0.3157
Li    Li292        0.0451    0.1923    0.4451
Li    Li293        0.2010    0.1094    0.3100
Li    Li294        0.0741    0.1931    0.3073
Li    Li295        0.1736    0.1080    0.4479
Li    Li296        0.0526    0.1904    0.6893
Li    Li297        0.1695    0.1096    0.7033
Li    Li298        0.1777    0.1339    0.8255
Li    Li299        0.2023    0.1372    0.9238
Li    Li300        0.0398    0.1667    0.8223
Li    Li301        0.1991    0.1154    0.8062
Li    Li302        0.1693    0.1114    0.9458
Li    Li303        0.2043    0.2366    0.1797
Li    Li304        0.0769    0.2774    0.0475
Li    Li305        0.1631    0.2349    0.3185
Li    Li306        0.2041    0.2379    0.4283
Li    Li307        0.1697    0.2149    0.4477
Li    Li308        0.1730    0.2313    0.5802
Li    Li309        0.0765    0.2635    0.6706
Li    Li310        0.2041    0.2368    0.6661
Li    Li311        0.0435    0.2849    0.6973
Li    Li312        0.1992    0.2008    0.5532
Li    Li313        0.1709    0.2086    0.6889
Li    Li314        0.1689    0.2413    0.8208
Li    Li315        0.0771    0.2628    0.9336
Li    Li316        0.0409    0.2670    0.8160
Li    Li317        0.0450    0.2888    0.9556
Li    Li318        0.0735    0.2763    0.7990
Li    Li319        0.1643    0.2129    0.9452
Li    Li320        0.0806    0.3641    0.1736
Li    Li321        0.2042    0.3411    0.1699
Li    Li322        0.0813    0.3833    0.0760
Li    Li323        0.1741    0.3168    0.2016
Li    Li324        0.0764    0.3672    0.9246
Li    Li325        0.2077    0.3364    0.9260
Li    Li326        0.0430    0.3871    0.9458
Li    Li327        0.1771    0.3168    0.9448
Li    Li328        0.1831    0.4208    0.0709
Li    Li329        0.0886    0.4558    0.1841
Li    Li330        0.1998    0.4379    0.1749
Li    Li331        0.0462    0.4822    0.1978
Li    Li332        0.2106    0.4109    0.0498
Li    Li333        0.1738    0.4115    0.1985
Li    Li334        0.0874    0.4556    0.4273
Li    Li335        0.0471    0.4675    0.3253
Li    Li336        0.0308    0.4940    0.4410
Li    Li337        0.2033    0.4147    0.3020
Li    Li338        0.0888    0.4834    0.3104
Li    Li339        0.0458    0.4625    0.5722
Li    Li340        0.1753    0.4310    0.8133
Li    Li341        0.0895    0.4591    0.9333
Li    Li342        0.2045    0.4362    0.9294
Li    Li343        0.0378    0.4879    0.9415
Li    Li344        0.2016    0.5373    0.1709
Li    Li345        0.1677    0.5145    0.1954
Li    Li346        0.1672    0.5421    0.3222
Li    Li347        0.0753    0.5615    0.4289
Li    Li348        0.2090    0.5388    0.4294
Li    Li349        0.0433    0.5680    0.3251
Li    Li350        0.0853    0.5914    0.3038
Li    Li351        0.1687    0.5141    0.4449
Li    Li352        0.1702    0.5446    0.5646
Li    Li353        0.2091    0.5426    0.6700
Li    Li354        0.2001    0.5127    0.5607
Li    Li355        0.1721    0.5367    0.8149
Li    Li356        0.0414    0.5616    0.8197
Li    Li357        0.0508    0.5876    0.9501
Li    Li358        0.2096    0.5148    0.8026
Li    Li359        0.0839    0.5913    0.8010
Li    Li360        0.1748    0.6391    0.0677
Li    Li361        0.0713    0.6579    0.1818
Li    Li362        0.0432    0.6884    0.1927
Li    Li363        0.2003    0.6116    0.0547
Li    Li364        0.0962    0.6966    0.0528
Li    Li365        0.0795    0.6646    0.4281
Li    Li366        0.2036    0.6401    0.4314
Li    Li367        0.0486    0.6668    0.3264
Li    Li368        0.0428    0.6835    0.4437
Li    Li369        0.2018    0.6078    0.2950
Li    Li370        0.1742    0.6313    0.4486
Li    Li371        0.1673    0.6369    0.5692
Li    Li372        0.0849    0.6576    0.6785
Li    Li373        0.0240    0.6945    0.6968
Li    Li374        0.2041    0.6112    0.5534
Li    Li375        0.1755    0.6140    0.6966
Li    Li376        0.1739    0.6387    0.8233
Li    Li377        0.2077    0.6250    0.9271
Li    Li378        0.0357    0.6632    0.8101
Li    Li379        0.0386    0.6752    0.9425
Li    Li380        0.2026    0.6154    0.7940
Li    Li381        0.0796    0.6875    0.7962
Li    Li382        0.1713    0.6218    0.9530
Li    Li383        0.1762    0.7419    0.0742
Li    Li384        0.0779    0.7589    0.1757
Li    Li385        0.0492    0.7615    0.0685
Li    Li386        0.0488    0.7868    0.1942
Li    Li387        0.2068    0.7153    0.0607
Li    Li388        0.1706    0.7168    0.1987
Li    Li389        0.1691    0.7363    0.3215
Li    Li390        0.2037    0.7442    0.4225
Li    Li391        0.2083    0.7092    0.3064
Li    Li392        0.1646    0.7128    0.4220
Li    Li393        0.1760    0.7377    0.5724
Li    Li394        0.0804    0.7664    0.6766
Li    Li395        0.0647    0.7749    0.6952
Li    Li396        0.2055    0.7153    0.5541
Li    Li397        0.0837    0.7869    0.5533
Li    Li398        0.1714    0.7077    0.6992
Li    Li399        0.2062    0.7369    0.9270
Li    Li400        0.0422    0.7563    0.8050
Li    Li401        0.0842    0.7907    0.7950
Li    Li402        0.1725    0.7188    0.9578
Li    Li403        0.0714    0.8598    0.1887
Li    Li404        0.0418    0.8565    0.0694
Li    Li405        0.0512    0.8806    0.1925
Li    Li406        0.2001    0.8126    0.0550
Li    Li407        0.0842    0.8824    0.0581
Li    Li408        0.1799    0.8041    0.1930
Li    Li409        0.0909    0.8628    0.4335
Li    Li410        0.1568    0.8372    0.5706
Li    Li411        0.0471    0.8600    0.5683
Li    Li412        0.0789    0.8914    0.5565
Li    Li413        0.2077    0.8385    0.9224
Li    Li414        0.0415    0.8570    0.8265
Li    Li415        0.0467    0.8828    0.9455
Li    Li416        0.0775    0.8856    0.8009
Li    Li417        0.1647    0.9348    0.0669
Li    Li418        0.0685    0.9822    0.0594
Li    Li419        0.0854    0.9624    0.4309
Li    Li420        0.0533    0.9771    0.4454
Li    Li421        0.2092    0.9384    0.6799
Li    Li422        0.1769    0.9161    0.6912
Li    Li423        0.1714    0.9389    0.8297
Li    Li424        0.2091    0.9366    0.9217
Li    Li425        0.0362    0.9555    0.8125
Li    Li426        0.0331    0.9869    0.9413
Li    Li427        0.2008    0.9074    0.8109
Li    Li428        0.0850    0.9907    0.8009
Li    Li429        0.2927    0.0903    0.1979
Li    Li430        0.4258    0.0362    0.3208
Li    Li431        0.3253    0.0608    0.4344
Li    Li432        0.4542    0.0402    0.4301
Li    Li433        0.4646    0.0144    0.3206
Li    Li434        0.4199    0.0107    0.4372
Li    Li435        0.3000    0.0629    0.8197
Li    Li436        0.3253    0.1614    0.1772
Li    Li437        0.4541    0.1340    0.1737
Li    Li438        0.2933    0.1852    0.2010
Li    Li439        0.4099    0.1133    0.1908
Li    Li440        0.3308    0.1581    0.6877
Li    Li441        0.2918    0.1905    0.6948
Li    Li442        0.4137    0.1465    0.8190
Li    Li443        0.4483    0.1357    0.9324
Li    Li444        0.2961    0.1677    0.8228
Li    Li445        0.4488    0.1106    0.8082
Li    Li446        0.4279    0.1032    0.9489
Li    Li447        0.3218    0.2625    0.1875
Li    Li448        0.4595    0.2403    0.1800
Li    Li449        0.3026    0.2863    0.1956
Li    Li450        0.4505    0.2101    0.0702
Li    Li451        0.4186    0.2111    0.1927
Li    Li452        0.4222    0.2173    0.6997
Li    Li453        0.4259    0.2307    0.8235
Li    Li454        0.3379    0.2543    0.9307
Li    Li455        0.4535    0.2375    0.9359
Li    Li456        0.2954    0.2633    0.8182
Li    Li457        0.4530    0.2202    0.8188
Li    Li458        0.3345    0.2859    0.8031
Li    Li459        0.4257    0.2180    0.9462
Li    Li460        0.4198    0.3371    0.0659
Li    Li461        0.4526    0.3334    0.1809
Li    Li462        0.2934    0.3631    0.0741
Li    Li463        0.2964    0.3825    0.2047
Li    Li464        0.4543    0.3188    0.0457
Li    Li465        0.3227    0.3812    0.0556
Li    Li466        0.4199    0.3194    0.2001
Li    Li467        0.4667    0.3391    0.9291
Li    Li468        0.4267    0.3037    0.9424
Li    Li469        0.4242    0.4295    0.0702
Li    Li470        0.4544    0.4387    0.1784
Li    Li471        0.2884    0.4585    0.0630
Li    Li472        0.4537    0.4136    0.0534
Li    Li473        0.4207    0.4097    0.1968
Li    Li474        0.2939    0.4597    0.3187
Li    Li475        0.3370    0.4813    0.3026
Li    Li476        0.4131    0.5356    0.0706
Li    Li477        0.4583    0.5410    0.1759
Li    Li478        0.2871    0.5544    0.0570
Li    Li479        0.2903    0.5983    0.1606
Li    Li480        0.3246    0.5964    0.0582
Li    Li481        0.4207    0.5118    0.1960
Li    Li482        0.2865    0.5574    0.3170
Li    Li483        0.4540    0.5104    0.3128
Li    Li484        0.4219    0.5127    0.7064
Li    Li485        0.4167    0.5399    0.8222
Li    Li486        0.3318    0.5668    0.9251
Li    Li487        0.2845    0.5662    0.8121
Li    Li488        0.3110    0.5791    0.9390
Li    Li489        0.4550    0.5109    0.8038
Li    Li490        0.4292    0.6316    0.0634
Li    Li491        0.3231    0.6665    0.1796
Li    Li492        0.2957    0.6613    0.0733
Li    Li493        0.2909    0.6869    0.1923
Li    Li494        0.4450    0.6056    0.0603
Li    Li495        0.3289    0.6856    0.0508
Li    Li496        0.4204    0.6199    0.2064
Li    Li497        0.3287    0.6613    0.4322
Li    Li498        0.3007    0.6686    0.3320
Li    Li499        0.2899    0.6937    0.4426
Li    Li500        0.4259    0.6476    0.5674
Li    Li501        0.3267    0.6677    0.6719
Li    Li502        0.4518    0.6344    0.6779
Li    Li503        0.2923    0.6860    0.6976
Li    Li504        0.4721    0.6023    0.5742
Li    Li505        0.3342    0.6860    0.5542
Li    Li506        0.4229    0.6115    0.6999
Li    Li507        0.4177    0.6358    0.8271
Li    Li508        0.4387    0.6267    0.9355
Li    Li509        0.2858    0.6559    0.8243
Li    Li510        0.2935    0.6840    0.9478
Li    Li511        0.4494    0.6071    0.8033
Li    Li512        0.4169    0.6086    0.9461
Li    Li513        0.4217    0.7336    0.0684
Li    Li514        0.3200    0.7619    0.1878
Li    Li515        0.2953    0.7863    0.2009
Li    Li516        0.4505    0.7156    0.0539
Li    Li517        0.3312    0.7902    0.0522
Li    Li518        0.4244    0.7068    0.1980
Li    Li519        0.4131    0.7381    0.3204
Li    Li520        0.3228    0.7903    0.3013
Li    Li521        0.4197    0.7380    0.5729
Li    Li522        0.2998    0.7614    0.5666
Li    Li523        0.4632    0.7163    0.5552
Li    Li524        0.3259    0.7856    0.5500
Li    Li525        0.4202    0.7113    0.6950
Li    Li526        0.3025    0.7645    0.8273
Li    Li527        0.3030    0.7924    0.9391
Li    Li528        0.3276    0.7927    0.8005
Li    Li529        0.4169    0.7148    0.9410
Li    Li530        0.4204    0.8380    0.0633
Li    Li531        0.4549    0.8431    0.1784
Li    Li532        0.2947    0.8608    0.0757
Li    Li533        0.4519    0.8145    0.0545
Li    Li534        0.3319    0.8871    0.0492
Li    Li535        0.3280    0.8548    0.6911
Li    Li536        0.4590    0.8340    0.6782
Li    Li537        0.3032    0.8834    0.6941
Li    Li538        0.4564    0.8161    0.5531
Li    Li539        0.3202    0.8857    0.5532
Li    Li540        0.4210    0.8134    0.6969
Li    Li541        0.4555    0.8420    0.9297
Li    Li542        0.2893    0.8570    0.8225
Li    Li543        0.2850    0.8927    0.9451
Li    Li544        0.4566    0.8081    0.8040
Li    Li545        0.3296    0.8712    0.8092
Li    Li546        0.4184    0.9342    0.0788
Li    Li547        0.3317    0.9619    0.1782
Li    Li548        0.4569    0.9444    0.2083
Li    Li549        0.2983    0.9669    0.0782
Li    Li550        0.2939    0.9892    0.2002
Li    Li551        0.4211    0.9353    0.3234
Li    Li552        0.3272    0.9633    0.4265
Li    Li553        0.2917    0.9577    0.3296
Li    Li554        0.2800    0.9857    0.4406
Li    Li555        0.4573    0.9083    0.3002
Li    Li556        0.3312    0.9832    0.3003
Li    Li557        0.4181    0.9355    0.5688
Li    Li558        0.3271    0.9606    0.6813
Li    Li559        0.4494    0.9388    0.6823
Li    Li560        0.2937    0.9621    0.5740
Li    Li561        0.4530    0.9177    0.5540
Li    Li562        0.4229    0.9175    0.6975
Li    Li563        0.4194    0.9446    0.8093
Li    Li564        0.2897    0.9659    0.8068
Li    Li565        0.2915    0.9883    0.9488
Li    Li566        0.4498    0.9108    0.8022
Li    Li567        0.3305    0.9856    0.8006
Li    Li568        0.5841    0.0602    0.1795
Li    Li569        0.7069    0.0276    0.1768
Li    Li570        0.5409    0.0604    0.0738
Li    Li571        0.5472    0.0865    0.1980
Li    Li572        0.6987    0.0117    0.0551
Li    Li573        0.5772    0.0903    0.0521
Li    Li574        0.6693    0.0208    0.2039
Li    Li575        0.5796    0.0610    0.9280
Li    Li576        0.6655    0.1386    0.0639
Li    Li577        0.7065    0.1422    0.1761
Li    Li578        0.5479    0.1632    0.0654
Li    Li579        0.7032    0.1027    0.0614
Li    Li580        0.5802    0.1889    0.0571
Li    Li581        0.5856    0.1646    0.9365
Li    Li582        0.6955    0.1359    0.9267
Li    Li583        0.5522    0.1603    0.8195
Li    Li584        0.6848    0.1208    0.9465
Li    Li585        0.5480    0.2632    0.0709
Li    Li586        0.5809    0.2943    0.0512
Li    Li587        0.7096    0.2424    0.4203
Li    Li588        0.5852    0.2653    0.9445
Li    Li589        0.7042    0.2355    0.9260
Li    Li590        0.5388    0.2575    0.8231
Li    Li591        0.5442    0.2871    0.9447
Li    Li592        0.5661    0.3670    0.1858
Li    Li593        0.7072    0.3401    0.1862
Li    Li594        0.5446    0.3823    0.1970
Li    Li595        0.7022    0.3094    0.0596
Li    Li596        0.6716    0.3050    0.2079
Li    Li597        0.5796    0.3848    0.3053
Li    Li598        0.5793    0.3580    0.6821
Li    Li599        0.7126    0.3252    0.6781
Li    Li600        0.5502    0.3745    0.5663
Li    Li601        0.5497    0.3910    0.6983
Li    Li602        0.5761    0.3906    0.5579
Li    Li603        0.5932    0.3642    0.9356
Li    Li604        0.7007    0.3397    0.9268
Li    Li605        0.5460    0.3685    0.8277
Li    Li606        0.5848    0.3905    0.7991
Li    Li607        0.6672    0.3168    0.9507
Li    Li608        0.5484    0.4648    0.0700
Li    Li609        0.5498    0.4873    0.1967
Li    Li610        0.5782    0.4906    0.0609
Li    Li611        0.6670    0.4359    0.7064
Li    Li612        0.6734    0.4336    0.8149
Li    Li613        0.6957    0.4332    0.9314
Li    Li614        0.5799    0.4881    0.7984
Li    Li615        0.6685    0.5385    0.0709
Li    Li616        0.5742    0.5552    0.1836
Li    Li617        0.5379    0.5928    0.1941
Li    Li618        0.5870    0.5921    0.0565
Li    Li619        0.6740    0.5105    0.1920
Li    Li620        0.5474    0.5625    0.3237
Li    Li621        0.5438    0.5910    0.4471
Li    Li622        0.7104    0.5100    0.3008
Li    Li623        0.5790    0.5850    0.3028
Li    Li624        0.5746    0.5574    0.6740
Li    Li625        0.5517    0.5755    0.5648
Li    Li626        0.5839    0.5818    0.5513
Li    Li627        0.5732    0.5740    0.9300
Li    Li628        0.7155    0.5445    0.9272
Li    Li629        0.5534    0.5814    0.9473
Li    Li630        0.6987    0.5148    0.8060
Li    Li631        0.6690    0.5136    0.9458
Li    Li632        0.5818    0.6854    0.0558
Li    Li633        0.6743    0.6178    0.1982
Li    Li634        0.5877    0.6567    0.4345
Li    Li635        0.6981    0.6427    0.4322
Li    Li636        0.5430    0.6901    0.4400
Li    Li637        0.6727    0.6333    0.5695
Li    Li638        0.7118    0.6406    0.6788
Li    Li639        0.5395    0.6624    0.5704
Li    Li640        0.5510    0.6857    0.6912
Li    Li641        0.7027    0.6139    0.5452
Li    Li642        0.5471    0.6828    0.9539
Li    Li643        0.7020    0.6155    0.8020
Li    Li644        0.7051    0.7277    0.1769
Li    Li645        0.6671    0.7393    0.3321
Li    Li646        0.5828    0.7667    0.4269
Li    Li647        0.6954    0.7331    0.4328
Li    Li648        0.5568    0.7664    0.3150
Li    Li649        0.5521    0.7862    0.4485
Li    Li650        0.7000    0.7180    0.3056
Li    Li651        0.5788    0.7813    0.3030
Li    Li652        0.6732    0.7127    0.4503
Li    Li653        0.5721    0.7658    0.6786
Li    Li654        0.7054    0.7341    0.6771
Li    Li655        0.5470    0.7624    0.5795
Li    Li656        0.6989    0.7187    0.5538
Li    Li657        0.6539    0.7009    0.6861
Li    Li658        0.5380    0.7571    0.8153
Li    Li659        0.5365    0.7902    0.9464
Li    Li660        0.5870    0.7832    0.8195
Li    Li661        0.5746    0.8589    0.1826
Li    Li662        0.5443    0.8643    0.0693
Li    Li663        0.5392    0.8919    0.1987
Li    Li664        0.5778    0.8902    0.0493
Li    Li665        0.6638    0.8165    0.4391
Li    Li666        0.5816    0.8583    0.6856
Li    Li667        0.7007    0.8345    0.6708
Li    Li668        0.5353    0.8634    0.5613
Li    Li669        0.5505    0.8845    0.7008
Li    Li670        0.6714    0.8390    0.8254
Li    Li671        0.5904    0.8647    0.9338
Li    Li672        0.5533    0.8587    0.8137
Li    Li673        0.5394    0.8911    0.9369
Li    Li674        0.7000    0.7997    0.8078
Li    Li675        0.5746    0.8771    0.7928
Li    Li676        0.5784    0.9662    0.1730
Li    Li677        0.5535    0.9921    0.1992
Li    Li678        0.5834    0.9823    0.0515
Li    Li679        0.6671    0.9116    0.1990
Li    Li680        0.5767    0.9680    0.6706
Li    Li681        0.5421    0.9916    0.6943
Li    Li682        0.5924    0.9528    0.9313
Li    Li683        0.7076    0.9392    0.9302
Li    Li684        0.6562    0.9105    0.9408
Li    Li685        0.9198    0.0333    0.3254
Li    Li686        0.9543    0.0160    0.3030
Li    Li687        0.8329    0.0888    0.3011
Li    Li688        0.9567    0.0370    0.9313
Li    Li689        0.7915    0.0870    0.9426
Li    Li690        0.9208    0.0150    0.9521
Li    Li691        0.9511    0.1388    0.1759
Li    Li692        0.8019    0.1589    0.0686
Li    Li693        0.8396    0.1924    0.0568
Li    Li694        0.9176    0.1161    0.2007
Li    Li695        0.9267    0.1423    0.3195
Li    Li696        0.8185    0.1559    0.4366
Li    Li697        0.9591    0.1246    0.4242
Li    Li698        0.7962    0.1593    0.3158
Li    Li699        0.7892    0.1913    0.4504
Li    Li700        0.9499    0.1181    0.2968
Li    Li701        0.9184    0.1085    0.4374
Li    Li702        0.9432    0.1405    0.6838
Li    Li703        0.8333    0.1859    0.5513
Li    Li704        0.9193    0.1101    0.7019
Li    Li705        0.9112    0.2400    0.0685
Li    Li706        0.8231    0.2680    0.1776
Li    Li707        0.9512    0.2249    0.2004
Li    Li708        0.7900    0.2626    0.0728
Li    Li709        0.9563    0.2110    0.0497
Li    Li710        0.8225    0.2821    0.0445
Li    Li711        0.9167    0.2308    0.2070
Li    Li712        0.9202    0.2400    0.3238
Li    Li713        0.8101    0.2420    0.4325
Li    Li714        0.9526    0.2368    0.4276
Li    Li715        0.9630    0.2215    0.3149
Li    Li716        0.8348    0.2615    0.6812
Li    Li717        0.9513    0.2359    0.6816
Li    Li718        0.7959    0.2619    0.5675
Li    Li719        0.7988    0.2823    0.7157
Li    Li720        0.9585    0.2125    0.5564
Li    Li721        0.8292    0.2879    0.5482
Li    Li722        0.9232    0.2133    0.7046
Li    Li723        0.8310    0.2587    0.9314
Li    Li724        0.9544    0.2313    0.9349
Li    Li725        0.8040    0.2655    0.8167
Li    Li726        0.7875    0.2883    0.9468
Li    Li727        0.8282    0.2813    0.8061
Li    Li728        0.9123    0.3385    0.0702
Li    Li729        0.9589    0.3335    0.0490
Li    Li730        0.9154    0.3136    0.1940
Li    Li731        0.9224    0.3318    0.5729
Li    Li732        0.8314    0.3625    0.6718
Li    Li733        0.7954    0.3793    0.7008
Li    Li734        0.9533    0.3140    0.5543
Li    Li735        0.9165    0.3340    0.8209
Li    Li736        0.9574    0.3425    0.9362
Li    Li737        0.7932    0.3599    0.8147
Li    Li738        0.8322    0.3886    0.7993
Li    Li739        0.9108    0.3070    0.9410
Li    Li740        0.9296    0.4548    0.0736
Li    Li741        0.7978    0.4617    0.0716
Li    Li742        0.8337    0.4965    0.0580
Li    Li743        0.9233    0.4410    0.3201
Li    Li744        0.9544    0.4437    0.4381
Li    Li745        0.8032    0.4656    0.3198
Li    Li746        0.9637    0.4032    0.3123
Li    Li747        0.8245    0.4631    0.6766
Li    Li748        0.7971    0.4524    0.5762
Li    Li749        0.7920    0.4762    0.6964
Li    Li750        0.9168    0.4323    0.6961
Li    Li751        0.8342    0.4652    0.9383
Li    Li752        0.9631    0.4394    0.9322
Li    Li753        0.7913    0.4539    0.8221
Li    Li754        0.7826    0.4987    0.9564
Li    Li755        0.9209    0.4121    0.9440
Li    Li756        0.9236    0.5372    0.3281
Li    Li757        0.8435    0.5586    0.4325
Li    Li758        0.9539    0.5114    0.3036
Li    Li759        0.8390    0.5884    0.3062
Li    Li760        0.9229    0.5119    0.4518
Li    Li761        0.9109    0.5312    0.5663
Li    Li762        0.9514    0.5177    0.5524
Li    Li763        0.9214    0.5057    0.6919
Li    Li764        0.8366    0.5564    0.9259
Li    Li765        0.9488    0.5484    0.9303
Li    Li766        0.8019    0.5794    0.9517
Li    Li767        0.9163    0.5127    0.9426
Li    Li768        0.9324    0.6520    0.0667
Li    Li769        0.8287    0.6644    0.1741
Li    Li770        0.9587    0.6405    0.1763
Li    Li771        0.7901    0.6923    0.1956
Li    Li772        0.9581    0.6160    0.0387
Li    Li773        0.8491    0.6942    0.0545
Li    Li774        0.9219    0.6115    0.2015
Li    Li775        0.9589    0.6393    0.4379
Li    Li776        0.9491    0.6179    0.3001
Li    Li777        0.8258    0.6905    0.2970
Li    Li778        0.9200    0.6214    0.4647
Li    Li779        0.7946    0.6865    0.6954
Li    Li780        0.9181    0.6419    0.8249
Li    Li781        0.9514    0.6357    0.9211
Li    Li782        0.7958    0.6631    0.8246
Li    Li783        0.8037    0.6846    0.9406
Li    Li784        0.9549    0.6089    0.8000
Li    Li785        0.8262    0.6865    0.8015
Li    Li786        0.8330    0.7601    0.1811
Li    Li787        0.9506    0.7462    0.1820
Li    Li788        0.7948    0.7899    0.1993
Li    Li789        0.9587    0.7066    0.0625
Li    Li790        0.9258    0.7117    0.1984
Li    Li791        0.9225    0.7355    0.5749
Li    Li792        0.8262    0.7591    0.6718
Li    Li793        0.9628    0.7222    0.6690
Li    Li794        0.7945    0.7891    0.6966
Li    Li795        0.9385    0.7061    0.5557
Li    Li796        0.8292    0.7913    0.5585
Li    Li797        0.9084    0.7079    0.6935
Li    Li798        0.9228    0.7421    0.8263
Li    Li799        0.7954    0.7607    0.8247
Li    Li800        0.9563    0.7150    0.8041
Li    Li801        0.9136    0.8422    0.0736
Li    Li802        0.9560    0.8373    0.1775
Li    Li803        0.9641    0.8031    0.0554
Li    Li804        0.9240    0.8159    0.1934
Li    Li805        0.9213    0.8356    0.5724
Li    Li806        0.9541    0.8127    0.5521
Li    Li807        0.9652    0.8062    0.8062
Li    Li808        0.7977    0.9716    0.0786
Li    Li809        0.9515    0.9099    0.0555
Li    Li810        0.8429    0.9936    0.0496
Li    Li811        0.9555    0.9342    0.6751
Li    Li812        0.9686    0.9065    0.5551
Li    Li813        0.9194    0.9157    0.7035
Li    Li814        0.9757    0.9418    0.9431
Li    Li815        0.9507    0.9017    0.8019
Li    Li816        0.0137    0.0732    0.0575
Li    Li817        0.0035    0.0978    0.1576
Li    Li818        0.2432    0.0145    0.0292
Li    Li819        0.1097    0.0463    0.3185
Li    Li820        0.9885    0.0540    0.3251
Li    Li821        0.2359    0.0240    0.3190
Li    Li822        0.1179    0.0823    0.3049
Li    Li823        0.1327    0.0113    0.4391
Li    Li824        0.1270    0.0659    0.9331
Li    Li825        0.0061    0.0822    0.9599
Li    Li826        0.1080    0.0930    0.8041
Li    Li827        0.1367    0.1409    0.3127
Li    Li828        0.0021    0.1651    0.3215
Li    Li829        0.0047    0.1821    0.4666
Li    Li830        0.1224    0.1740    0.2918
Li    Li831        0.1304    0.1206    0.4685
Li    Li832        0.0018    0.2020    0.6894
Li    Li833        0.1343    0.1226    0.8333
Li    Li834        0.1353    0.1631    0.9225
Li    Li835        0.1211    0.2688    0.1860
Li    Li836        0.2382    0.2299    0.1876
Li    Li837        0.0208    0.2958    0.4406
Li    Li838        0.1170    0.2118    0.4410
Li    Li839        0.2458    0.2317    0.6837
Li    Li840        0.9823    0.2642    0.5553
Li    Li841        0.2415    0.2155    0.5507
Li    Li842        0.1263    0.2053    0.6888
Li    Li843        0.1374    0.2363    0.8267
Li    Li844        0.1285    0.2698    0.9231
Li    Li845        0.1184    0.2862    0.8154
Li    Li846        0.1330    0.2137    0.9427
Li    Li847        0.1044    0.3466    0.1819
Li    Li848        0.2496    0.3425    0.1823
Li    Li849        0.1157    0.3813    0.0714
Li    Li850        0.1366    0.3075    0.1963
Li    Li851        0.2249    0.3553    0.9394
Li    Li852        0.0163    0.3879    0.9491
Li    Li853        0.1316    0.3190    0.9249
Li    Li854        0.0208    0.4955    0.1838
Li    Li855        0.1451    0.4023    0.1874
Li    Li856        0.0233    0.4784    0.3085
Li    Li857        0.0038    0.4906    0.4524
Li    Li858        0.0047    0.4639    0.5617
Li    Li859        0.1336    0.4605    0.9294
Li    Li860        0.2476    0.4286    0.9381
Li    Li861        0.0090    0.4902    0.9413
Li    Li862        0.1375    0.5093    0.1842
Li    Li863        0.1422    0.5464    0.3168
Li    Li864        0.1217    0.5519    0.4336
Li    Li865        0.0030    0.5913    0.4506
Li    Li866        0.1127    0.5061    0.4492
Li    Li867        0.2464    0.5421    0.6702
Li    Li868        0.2426    0.5230    0.5706
Li    Li869        0.2309    0.5382    0.9367
Li    Li870        0.9931    0.5563    0.8324
Li    Li871        0.9812    0.5827    0.9404
Li    Li872        0.2327    0.5348    0.8185
Li    Li873        0.0087    0.6877    0.2012
Li    Li874        0.2322    0.6135    0.0475
Li    Li875        0.1440    0.6926    0.0438
Li    Li876        0.1170    0.6657    0.4056
Li    Li877        0.0273    0.6521    0.3120
Li    Li878        0.1350    0.6081    0.4478
Li    Li879        0.1173    0.6673    0.6787
Li    Li880        0.2330    0.6062    0.5616
Li    Li881        0.1375    0.6237    0.6797
Li    Li882        0.0071    0.6696    0.9495
Li    Li883        0.1170    0.6846    0.7941
Li    Li884        0.1348    0.6165    0.9564
Li    Li885        0.1220    0.7639    0.1740
Li    Li886        0.0153    0.7564    0.0618
Li    Li887        0.9963    0.7851    0.1937
Li    Li888        0.2419    0.7151    0.0542
Li    Li889        0.2470    0.7125    0.2983
Li    Li890        0.1086    0.7126    0.4518
Li    Li891        0.1175    0.7706    0.6734
Li    Li892        0.1284    0.7934    0.5454
Li    Li893        0.2803    0.7189    0.8064
Li    Li894        0.1338    0.7098    0.9331
Li    Li895        0.2459    0.8339    0.1767
Li    Li896        0.0054    0.8607    0.0765
Li    Li897        0.0083    0.8843    0.1948
Li    Li898        0.2438    0.8118    0.0520
Li    Li899        0.1487    0.8031    0.1841
Li    Li900        0.1164    0.8588    0.4308
Li    Li901        0.0072    0.8992    0.6879
Li    Li902        0.0200    0.8569    0.8100
Li    Li903        0.0015    0.8791    0.9492
Li    Li904        0.1009    0.8921    0.8050
Li    Li905        0.1220    0.9381    0.0760
Li    Li906        0.0230    0.9490    0.0632
Li    Li907        0.1241    0.9944    0.0458
Li    Li908        0.1310    0.9043    0.4415
Li    Li909        0.1299    0.9421    0.8162
Li    Li910        0.2481    0.9383    0.9212
Li    Li911        0.0108    0.9666    0.8268
Li    Li912        0.0057    0.9843    0.9546
Li    Li913        0.1212    0.9938    0.7934
Li    Li914        0.4941    0.0428    0.1784
Li    Li915        0.3852    0.0287    0.3015
Li    Li916        0.3597    0.0596    0.4377
Li    Li917        0.3803    0.0138    0.4432
Li    Li918        0.3766    0.0129    0.7056
Li    Li919        0.2762    0.0528    0.8113
Li    Li920        0.3825    0.0884    0.8008
Li    Li921        0.3582    0.1672    0.1522
Li    Li922        0.2292    0.1836    0.2123
Li    Li923        0.4994    0.1203    0.0275
Li    Li924        0.3777    0.1157    0.1910
Li    Li925        0.3858    0.1422    0.8125
Li    Li926        0.3664    0.1938    0.8228
Li    Li927        0.3806    0.1121    0.9309
Li    Li928        0.3591    0.2511    0.1902
Li    Li929        0.2767    0.2525    0.0631
Li    Li930        0.5062    0.2031    0.0554
Li    Li931        0.3812    0.2088    0.1974
Li    Li932        0.3821    0.2344    0.8172
Li    Li933        0.2799    0.2415    0.8151
Li    Li934        0.3849    0.2147    0.9376
Li    Li935        0.3849    0.3397    0.0586
Li    Li936        0.3641    0.3678    0.1902
Li    Li937        0.2551    0.3689    0.0814
Li    Li938        0.2547    0.3871    0.1878
Li    Li939        0.4745    0.2995    0.0636
Li    Li940        0.4961    0.3366    0.9317
Li    Li941        0.3832    0.4379    0.0648
Li    Li942        0.3560    0.4472    0.1899
Li    Li943        0.4867    0.4438    0.1794
Li    Li944        0.2610    0.4658    0.0711
Li    Li945        0.5088    0.4103    0.0592
Li    Li946        0.3766    0.4215    0.1834
Li    Li947        0.2633    0.4657    0.3205
Li    Li948        0.2288    0.4731    0.9383
Li    Li949        0.3810    0.5420    0.0588
Li    Li950        0.4994    0.5346    0.1809
Li    Li951        0.5070    0.5131    0.0596
Li    Li952        0.4961    0.5305    0.6803
Li    Li953        0.2310    0.5530    0.5692
Li    Li954        0.2541    0.5803    0.6746
Li    Li955        0.3995    0.5706    0.9269
Li    Li956        0.4916    0.5168    0.7933
Li    Li957        0.4861    0.6105    0.0563
Li    Li958        0.3931    0.6872    0.0562
Li    Li959        0.3933    0.6233    0.1963
Li    Li960        0.3687    0.6694    0.4227
Li    Li961        0.4941    0.6350    0.6576
Li    Li962        0.2581    0.6826    0.6881
Li    Li963        0.3937    0.6058    0.6830
Li    Li964        0.3824    0.6462    0.8052
Li    Li965        0.3714    0.6643    0.9269
Li    Li966        0.5111    0.6456    0.9299
Li    Li967        0.2594    0.6626    0.8185
Li    Li968        0.2611    0.6881    0.9344
Li    Li969        0.4896    0.6166    0.8206
Li    Li970        0.3660    0.7703    0.1567
Li    Li971        0.3649    0.7898    0.0529
Li    Li972        0.3722    0.7129    0.1904
Li    Li973        0.2635    0.7675    0.3306
Li    Li974        0.3935    0.7351    0.5722
Li    Li975        0.4913    0.7297    0.6904
Li    Li976        0.2622    0.7611    0.5598
Li    Li977        0.3760    0.7042    0.6816
Li    Li978        0.3665    0.7563    0.9259
Li    Li979        0.2622    0.7597    0.8244
Li    Li980        0.2602    0.7933    0.9293
Li    Li981        0.3844    0.8313    0.0503
Li    Li982        0.2504    0.8630    0.0714
Li    Li983        0.3669    0.8834    0.0439
Li    Li984        0.4760    0.8527    0.4452
Li    Li985        0.3729    0.8659    0.6874
Li    Li986        0.4947    0.8365    0.6490
Li    Li987        0.2790    0.8970    0.6895
Li    Li988        0.3679    0.8880    0.5659
Li    Li989        0.3823    0.8140    0.6867
Li    Li990        0.2614    0.8906    0.9408
Li    Li991        0.4924    0.9320    0.1963
Li    Li992        0.2583    0.9584    0.0796
Li    Li993        0.3786    0.9071    0.2039
Li    Li994        0.3872    0.9410    0.3138
Li    Li995        0.2761    0.9406    0.3124
Li    Li996        0.4947    0.9208    0.2975
Li    Li997        0.3666    0.9860    0.3087
Li    Li998        0.3499    0.9534    0.6790
Li    Li999        0.4939    0.9521    0.6916
Li    Li1000        0.2621    0.9598    0.5715
Li    Li1001        0.2622    0.9633    0.8151
Li    Li1002        0.2376    0.9887    0.9475
Li    Li1003        0.3840    0.9879    0.7997
Li    Li1004        0.5050    0.0675    0.0761
Li    Li1005        0.5082    0.0829    0.2067
Li    Li1006        0.7416    0.0185    0.0422
Li    Li1007        0.6264    0.0152    0.1950
Li    Li1008        0.6079    0.0636    0.9383
Li    Li1009        0.7390    0.1288    0.1566
Li    Li1010        0.7507    0.1124    0.0578
Li    Li1011        0.6205    0.1828    0.0725
Li    Li1012        0.6226    0.1664    0.9186
Li    Li1013        0.7323    0.1358    0.9289
Li    Li1014        0.5143    0.1587    0.8113
Li    Li1015        0.6353    0.1139    0.9565
Li    Li1016        0.7720    0.2309    0.4273
Li    Li1017        0.5054    0.2648    0.8172
Li    Li1018        0.5061    0.2833    0.9303
Li    Li1019        0.6271    0.3399    0.0724
Li    Li1020        0.6216    0.3511    0.1814
Li    Li1021        0.7516    0.3366    0.1810
Li    Li1022        0.5136    0.3895    0.1830
Li    Li1023        0.7466    0.3146    0.0516
Li    Li1024        0.7286    0.3465    0.6902
Li    Li1025        0.5243    0.3492    0.5605
Li    Li1026        0.5046    0.4001    0.6931
Li    Li1027        0.6161    0.3553    0.9470
Li    Li1028        0.7479    0.3350    0.9070
Li    Li1029        0.6367    0.3132    0.9448
Li    Li1030        0.5073    0.4849    0.1979
Li    Li1031        0.5999    0.4971    0.0739
Li    Li1032        0.4960    0.4631    0.3218
Li    Li1033        0.6110    0.4166    0.6931
Li    Li1034        0.6191    0.4670    0.9090
Li    Li1035        0.6126    0.4774    0.8120
Li    Li1036        0.6312    0.5328    0.0851
Li    Li1037        0.6198    0.5842    0.0639
Li    Li1038        0.7357    0.5048    0.3094
Li    Li1039        0.6146    0.5824    0.3238
Li    Li1040        0.6128    0.5867    0.5501
Li    Li1041        0.5203    0.5536    0.8087
Li    Li1042        0.5263    0.5987    0.9413
Li    Li1043        0.7461    0.5090    0.8052
Li    Li1044        0.6386    0.5160    0.9370
Li    Li1045        0.7408    0.6471    0.4339
Li    Li1046        0.7429    0.6421    0.6770
Li    Li1047        0.5008    0.6793    0.6827
Li    Li1048        0.6340    0.6108    0.6875
Li    Li1049        0.7384    0.6145    0.7882
Li    Li1050        0.7428    0.7282    0.1881
Li    Li1051        0.6125    0.7635    0.4280
Li    Li1052        0.5258    0.7522    0.3121
Li    Li1053        0.6184    0.7860    0.2989
Li    Li1054        0.6198    0.7710    0.6831
Li    Li1055        0.7398    0.7254    0.6847
Li    Li1056        0.6346    0.7145    0.6940
Li    Li1057        0.5050    0.7875    0.9404
Li    Li1058        0.6109    0.8714    0.1981
Li    Li1059        0.5029    0.8866    0.1945
Li    Li1060        0.6279    0.8061    0.6945
Li    Li1061        0.6095    0.8460    0.8267
Li    Li1062        0.5136    0.8659    0.8250
Li    Li1063        0.5132    0.8794    0.9307
Li    Li1064        0.7382    0.8085    0.7928
Li    Li1065        0.6189    0.9577    0.1865
Li    Li1066        0.5038    0.9823    0.2216
Li    Li1067        0.6182    0.9885    0.0590
Li    Li1068        0.6118    0.9591    0.6778
Li    Li1069        0.7336    0.9319    0.9325
Li    Li1070        0.7585    0.0646    0.0722
Li    Li1071        0.8877    0.0333    0.3124
Li    Li1072        0.8943    0.0838    0.2973
Li    Li1073        0.8627    0.0613    0.9263
Li    Li1074        0.9902    0.0331    0.9364
Li    Li1075        0.9976    0.1361    0.2033
Li    Li1076        0.7619    0.1660    0.0601
Li    Li1077        0.8586    0.1753    0.0257
Li    Li1078        0.9864    0.1151    0.4295
Li    Li1079        0.7585    0.1894    0.4429
Li    Li1080        0.8828    0.1203    0.4702
Li    Li1081        0.9931    0.1377    0.6900
Li    Li1082        0.8703    0.1802    0.5490
Li    Li1083        0.8731    0.2670    0.1862
Li    Li1084        0.9864    0.2424    0.1781
Li    Li1085        0.8711    0.2842    0.0461
Li    Li1086        0.8575    0.2185    0.2080
Li    Li1087        0.9963    0.2438    0.4261
Li    Li1088        0.7641    0.2764    0.4361
Li    Li1089        0.0050    0.2065    0.3025
Li    Li1090        0.8840    0.2353    0.5486
Li    Li1091        0.8645    0.2585    0.6948
Li    Li1092        0.9871    0.2344    0.6717
Li    Li1093        0.7556    0.2622    0.5705
Li    Li1094        0.0021    0.2211    0.5683
Li    Li1095        0.8686    0.2847    0.5521
Li    Li1096        0.8693    0.2142    0.6873
Li    Li1097        0.8773    0.2674    0.9175
Li    Li1098        0.9737    0.2548    0.9421
Li    Li1099        0.8781    0.3364    0.0829
Li    Li1100        0.8715    0.3694    0.6668
Li    Li1101        0.7540    0.3935    0.6869
Li    Li1102        0.9884    0.3082    0.5639
Li    Li1103        0.8820    0.3373    0.8087
Li    Li1104        0.7527    0.3688    0.8213
Li    Li1105        0.7646    0.4689    0.0589
Li    Li1106        0.8611    0.4382    0.3289
Li    Li1107        0.7505    0.4708    0.3147
Li    Li1108        0.7643    0.4619    0.5659
Li    Li1109        0.7619    0.4820    0.6822
Li    Li1110        0.8753    0.4118    0.7193
Li    Li1111        0.0015    0.4386    0.9371
Li    Li1112        0.7648    0.4921    0.9353
Li    Li1113        0.8626    0.5537    0.1841
Li    Li1114        0.8577    0.5281    0.5807
Li    Li1115        0.8690    0.5698    0.9555
Li    Li1116        0.9875    0.5115    0.8063
Li    Li1117        0.8859    0.5077    0.9371
Li    Li1118        0.8840    0.6277    0.0828
Li    Li1119        0.8617    0.6599    0.1844
Li    Li1120        0.9954    0.6461    0.1819
Li    Li1121        0.8788    0.6123    0.1976
Li    Li1122        0.7618    0.6712    0.5496
Li    Li1123        0.7425    0.6877    0.6910
Li    Li1124        0.8794    0.6421    0.8095
Li    Li1125        0.7565    0.6604    0.8246
Li    Li1126        0.7644    0.6920    0.9367
Li    Li1127        0.0005    0.6161    0.8049
Li    Li1128        0.8748    0.6953    0.8102
Li    Li1129        0.0002    0.7508    0.1989
Li    Li1130        0.7610    0.7636    0.2048
Li    Li1131        0.9867    0.7095    0.0615
Li    Li1132        0.9012    0.6954    0.1683
Li    Li1133        0.8803    0.7347    0.5770
Li    Li1134        0.8623    0.7943    0.5566
Li    Li1135        0.9796    0.8499    0.1847
Li    Li1136        0.9979    0.8141    0.0513
Li    Li1137        0.8849    0.8106    0.1793
Li    Li1138        0.8818    0.8360    0.5615
Li    Li1139        0.8728    0.9614    0.6810
Li    Li1140        0.0276    0.9354    0.6521
Li    Li1141        0.7597    0.9902    0.9479
Li    Li1142        0.2011    0.0410    0.2307
Li    Li1143        0.1956    0.0125    0.1052
Li    Li1144        0.0514    0.0906    0.1205
Li    Li1145        0.0824    0.0999    0.1158
Li    Li1146        0.0829    0.0470    0.4988
Li    Li1147        0.1734    0.0474    0.2486
Li    Li1148        0.0490    0.0893    0.3902
Li    Li1149        0.1885    0.0058    0.3832
Li    Li1150        0.0835    0.1045    0.3504
Li    Li1151        0.0405    0.0506    0.5141
Li    Li1152        0.2079    0.0132    0.8569
Li    Li1153        0.1512    0.0182    0.8744
Li    Li1154        0.2064    0.1522    0.2340
Li    Li1155        0.0508    0.1975    0.1255
Li    Li1156        0.0466    0.1548    0.2622
Li    Li1157        0.2026    0.0947    0.3660
Li    Li1158        0.1624    0.0885    0.3803
Li    Li1159        0.0758    0.2014    0.3672
Li    Li1160        0.1967    0.1362    0.7445
Li    Li1161        0.0378    0.1507    0.7654
Li    Li1162        0.2020    0.1511    0.9813
Li    Li1163        0.0439    0.2398    0.2860
Li    Li1164        0.2115    0.2027    0.3554
Li    Li1165        0.1748    0.2357    0.5154
Li    Li1166        0.0417    0.2554    0.5134
Li    Li1167        0.2054    0.2510    0.7524
Li    Li1168        0.0225    0.2947    0.6376
Li    Li1169        0.1584    0.1998    0.6262
Li    Li1170        0.0735    0.2837    0.6222
Li    Li1171        0.0745    0.2644    0.9856
Li    Li1172        0.1979    0.2037    0.8652
Li    Li1173        0.1687    0.2047    0.8940
Li    Li1174        0.0465    0.3942    0.1313
Li    Li1175        0.0723    0.3626    0.9954
Li    Li1176        0.2084    0.3434    0.9804
Li    Li1177        0.2169    0.2959    0.8560
Li    Li1178        0.2199    0.4096    0.1255
Li    Li1179        0.0470    0.5029    0.1436
Li    Li1180        0.0620    0.4809    0.1171
Li    Li1181        0.1765    0.4442    0.2577
Li    Li1182        0.0354    0.4519    0.2562
Li    Li1183        0.0630    0.4882    0.3786
Li    Li1184        0.0234    0.4594    0.4984
Li    Li1185        0.2069    0.4494    0.9840
Li    Li1186        0.2031    0.4142    0.8619
Li    Li1187        0.0837    0.4924    0.8602
Li    Li1188        0.1701    0.5529    0.2609
Li    Li1189        0.2035    0.5128    0.3590
Li    Li1190        0.0902    0.6027    0.3677
Li    Li1191        0.0357    0.5468    0.5193
Li    Li1192        0.2105    0.4947    0.6153
Li    Li1193        0.1587    0.4966    0.6524
Li    Li1194        0.1694    0.5551    0.7691
Li    Li1195        0.2076    0.4944    0.8703
Li    Li1196        0.0462    0.5909    0.8921
Li    Li1197        0.0707    0.6507    0.2423
Li    Li1198        0.1708    0.6360    0.0118
Li    Li1199        0.0502    0.6558    0.0127
Li    Li1200        0.2101    0.5978    0.0997
Li    Li1201        0.0832    0.6624    0.4828
Li    Li1202        0.2056    0.6387    0.4896
Li    Li1203        0.2022    0.6027    0.3541
Li    Li1204        0.1641    0.6002    0.3892
Li    Li1205        0.1708    0.6530    0.5151
Li    Li1206        0.0363    0.6955    0.6416
Li    Li1207        0.0818    0.6483    0.9818
Li    Li1208        0.1965    0.6480    0.0003
Li    Li1209        0.0375    0.6907    0.8842
Li    Li1210        0.1651    0.7383    0.0229
Li    Li1211        0.2087    0.7444    0.2322
Li    Li1212        0.0850    0.7914    0.1055
Li    Li1213        0.0489    0.7562    0.2601
Li    Li1214        0.2068    0.6944    0.3488
Li    Li1215        0.0886    0.7564    0.7417
Li    Li1216        0.1682    0.7482    0.5266
Li    Li1217        0.0521    0.8004    0.6418
Li    Li1218        0.1628    0.6975    0.6328
Li    Li1219        0.0776    0.8046    0.6047
Li    Li1220        0.0800    0.8009    0.8532
Li    Li1221        0.0514    0.8883    0.1399
Li    Li1222        0.0766    0.8859    0.0988
Li    Li1223        0.2028    0.8558    0.4755
Li    Li1224        0.0882    0.8525    0.7506
Li    Li1225        0.2095    0.8485    0.7367
Li    Li1226        0.0444    0.8596    0.7647
Li    Li1227        0.0216    0.9083    0.8802
Li    Li1228        0.0446    0.9451    0.0267
Li    Li1229        0.0801    0.9561    0.4856
Li    Li1230        0.0779    0.9524    0.9977
Li    Li1231        0.0437    0.9446    0.7669
Li    Li1232        0.2106    0.9541    0.9825
Li    Li1233        0.2055    0.9058    0.8579
Li    Li1234        0.1693    0.9074    0.8936
Li    Li1235        0.4601    0.0049    0.1236
Li    Li1236        0.3377    0.0508    0.4979
Li    Li1237        0.4245    0.0407    0.2566
Li    Li1238        0.4579    0.0465    0.4862
Li    Li1239        0.2969    0.2028    0.1393
Li    Li1240        0.3362    0.1982    0.1150
Li    Li1241        0.3353    0.1505    0.7391
Li    Li1242        0.4140    0.1494    0.7777
Li    Li1243        0.4611    0.1479    0.9796
Li    Li1244        0.4198    0.1086    0.8916
Li    Li1245        0.3313    0.2018    0.8518
Li    Li1246        0.4132    0.2465    0.0162
Li    Li1247        0.2950    0.2659    0.0193
Li    Li1248        0.4509    0.2043    0.1079
Li    Li1249        0.4182    0.1951    0.1425
Li    Li1250        0.3343    0.3002    0.1115
Li    Li1251        0.4593    0.2494    0.7325
Li    Li1252        0.3322    0.2578    0.9890
Li    Li1253        0.2961    0.2546    0.7601
Li    Li1254        0.4205    0.1942    0.8886
Li    Li1255        0.3334    0.2948    0.8563
Li    Li1256        0.3422    0.3568    0.2267
Li    Li1257        0.4228    0.3392    0.0103
Li    Li1258        0.2936    0.3435    0.0218
Li    Li1259        0.4601    0.3433    0.2382
Li    Li1260        0.4523    0.3107    0.1047
Li    Li1261        0.2953    0.3881    0.1422
Li    Li1262        0.4143    0.3069    0.1366
Li    Li1263        0.3291    0.3905    0.1105
Li    Li1264        0.4124    0.3587    0.2842
Li    Li1265        0.4110    0.3028    0.8797
Li    Li1266        0.2900    0.4431    0.0291
Li    Li1267        0.4570    0.4401    0.2349
Li    Li1268        0.3354    0.5018    0.1042
Li    Li1269        0.4088    0.4419    0.2625
Li    Li1270        0.2957    0.5009    0.3919
Li    Li1271        0.3363    0.4495    0.0009
Li    Li1272        0.4547    0.5561    0.2362
Li    Li1273        0.4658    0.4998    0.1233
Li    Li1274        0.4185    0.4940    0.1434
Li    Li1275        0.2812    0.5951    0.3772
Li    Li1276        0.3313    0.5444    0.9779
Li    Li1277        0.4206    0.5493    0.7605
Li    Li1278        0.2960    0.5468    0.7667
Li    Li1279        0.2911    0.5922    0.8863
Li    Li1280        0.3367    0.6481    0.2492
Li    Li1281        0.4516    0.6405    0.2471
Li    Li1282        0.4583    0.6057    0.1114
Li    Li1283        0.2915    0.6946    0.1417
Li    Li1284        0.3299    0.6970    0.1131
Li    Li1285        0.3206    0.6456    0.4865
Li    Li1286        0.3192    0.6927    0.3739
Li    Li1287        0.3314    0.6593    0.7299
Li    Li1288        0.2991    0.6540    0.5053
Li    Li1289        0.2911    0.6530    0.7506
Li    Li1290        0.4543    0.6358    0.9848
Li    Li1291        0.4557    0.6092    0.8596
Li    Li1292        0.3284    0.7684    0.2312
Li    Li1293        0.4187    0.7526    0.0237
Li    Li1294        0.4164    0.7390    0.2631
Li    Li1295        0.2890    0.7634    0.2586
Li    Li1296        0.2913    0.7445    0.5107
Li    Li1297        0.4622    0.7455    0.7347
Li    Li1298        0.4684    0.7125    0.6200
Li    Li1299        0.4572    0.7408    0.9883
Li    Li1300        0.3222    0.7969    0.8703
Li    Li1301        0.2922    0.8513    0.0176
Li    Li1302        0.4595    0.8573    0.2298
Li    Li1303        0.4214    0.8058    0.1403
Li    Li1304        0.4261    0.8438    0.2599
Li    Li1305        0.4678    0.8325    0.4933
Li    Li1306        0.4549    0.8130    0.3601
Li    Li1307        0.4622    0.8050    0.6092
Li    Li1308        0.3381    0.8974    0.6287
Li    Li1309        0.4582    0.8033    0.8657
Li    Li1310        0.4190    0.7973    0.8969
Li    Li1311        0.3321    0.9615    0.2377
Li    Li1312        0.2835    0.9506    0.9926
Li    Li1313        0.4232    0.9560    0.2627
Li    Li1314        0.4592    0.8971    0.3769
Li    Li1315        0.2900    0.9951    0.3990
Li    Li1316        0.3312    0.0043    0.3582
Li    Li1317        0.3310    0.9490    0.7293
Li    Li1318        0.4187    0.9563    0.4977
Li    Li1319        0.4520    0.9548    0.7360
Li    Li1320        0.2930    0.9863    0.6411
Li    Li1321        0.2935    0.9494    0.7597
Li    Li1322        0.2978    0.9985    0.8956
Li    Li1323        0.5408    0.0569    0.0194
Li    Li1324        0.7100    0.0546    0.2414
Li    Li1325        0.7079    0.0026    0.1223
Li    Li1326        0.5403    0.1035    0.1308
Li    Li1327        0.5748    0.0536    0.9800
Li    Li1328        0.5395    0.1445    0.0268
Li    Li1329        0.7065    0.0983    0.1124
Li    Li1330        0.6682    0.1024    0.1512
Li    Li1331        0.7073    0.1555    0.9816
Li    Li1332        0.5877    0.1907    0.8681
Li    Li1333        0.7069    0.2406    0.4884
Li    Li1334        0.7160    0.1999    0.3731
Li    Li1335        0.6594    0.2505    0.4941
Li    Li1336        0.7111    0.2421    0.9864
Li    Li1337        0.5392    0.2896    0.8893
Li    Li1338        0.5381    0.3546    0.0125
Li    Li1339        0.7078    0.3022    0.1133
Li    Li1340        0.5800    0.3875    0.1122
Li    Li1341        0.5463    0.3610    0.2671
Li    Li1342        0.7182    0.3527    0.7512
Li    Li1343        0.7175    0.3011    0.6264
Li    Li1344        0.5474    0.3983    0.6304
Li    Li1345        0.7096    0.3417    0.9833
Li    Li1346        0.6685    0.3154    0.8968
Li    Li1347        0.5838    0.3956    0.8532
Li    Li1348        0.6620    0.4437    0.0164
Li    Li1349        0.7121    0.4516    0.7275
Li    Li1350        0.7107    0.3963    0.5993
Li    Li1351        0.7035    0.4541    0.9884
Li    Li1352        0.6955    0.4046    0.8573
Li    Li1353        0.5851    0.5498    0.2452
Li    Li1354        0.7175    0.5473    0.2369
Li    Li1355        0.7150    0.5116    0.1145
Li    Li1356        0.6672    0.5037    0.1363
Li    Li1357        0.5444    0.6062    0.4068
Li    Li1358        0.5529    0.5813    0.3639
Li    Li1359        0.5861    0.5552    0.7287
Li    Li1360        0.5355    0.5983    0.6310
Li    Li1361        0.5807    0.5978    0.6040
Li    Li1362        0.5908    0.5522    0.9939
Li    Li1363        0.6639    0.5368    0.7709
Li    Li1364        0.7049    0.5083    0.8676
Li    Li1365        0.5343    0.6080    0.8868
Li    Li1366        0.5457    0.6580    0.0184
Li    Li1367        0.6672    0.6023    0.1366
Li    Li1368        0.5715    0.6668    0.5058
Li    Li1369        0.7087    0.6365    0.4851
Li    Li1370        0.7102    0.6464    0.7324
Li    Li1371        0.6705    0.6116    0.6441
Li    Li1372        0.5820    0.6937    0.6150
Li    Li1373        0.5764    0.6635    0.9812
Li    Li1374        0.5402    0.7628    0.0152
Li    Li1375        0.6684    0.7410    0.2692
Li    Li1376        0.5468    0.8029    0.3962
Li    Li1377        0.5854    0.7863    0.3576
Li    Li1378        0.5472    0.7540    0.5156
Li    Li1379        0.5398    0.7986    0.6373
Li    Li1380        0.5399    0.8924    0.1402
Li    Li1381        0.6657    0.7974    0.3884
Li    Li1382        0.5727    0.8530    0.7456
Li    Li1383        0.7042    0.8415    0.7366
Li    Li1384        0.5390    0.9078    0.6518
Li    Li1385        0.5818    0.8524    0.9897
Li    Li1386        0.5471    0.8651    0.7674
Li    Li1387        0.7090    0.8148    0.8574
Li    Li1388        0.5804    0.9549    0.7313
Li    Li1389        0.5476    0.0064    0.6477
Li    Li1390        0.7988    0.0452    0.0115
Li    Li1391        0.9568    0.0477    0.2608
Li    Li1392        0.8310    0.0505    0.9930
Li    Li1393        0.9554    0.0368    0.9841
Li    Li1394        0.8460    0.1569    0.2458
Li    Li1395        0.7930    0.1479    0.0129
Li    Li1396        0.9536    0.1426    0.2361
Li    Li1397        0.7943    0.2092    0.1402
Li    Li1398        0.8249    0.1476    0.4824
Li    Li1399        0.7911    0.1540    0.2606
Li    Li1400        0.9674    0.0932    0.3609
Li    Li1401        0.7970    0.1920    0.3927
Li    Li1402        0.7958    0.1529    0.5164
Li    Li1403        0.7980    0.2745    0.0133
Li    Li1404        0.9480    0.2539    0.2481
Li    Li1405        0.7899    0.2979    0.1467
Li    Li1406        0.9248    0.1928    0.1306
Li    Li1407        0.9171    0.2390    0.2699
Li    Li1408        0.9608    0.1998    0.3607
Li    Li1409        0.8262    0.2611    0.7313
Li    Li1410        0.7938    0.2520    0.5115
Li    Li1411        0.9245    0.2024    0.6329
Li    Li1412        0.7934    0.2519    0.7695
Li    Li1413        0.8072    0.2984    0.8836
Li    Li1414        0.9169    0.3026    0.1460
Li    Li1415        0.9526    0.3575    0.4884
Li    Li1416        0.8169    0.3558    0.7516
Li    Li1417        0.7921    0.3869    0.6349
Li    Li1418        0.7931    0.3506    0.7661
Li    Li1419        0.9122    0.2955    0.9066
Li    Li1420        0.9156    0.4495    0.0086
Li    Li1421        0.9562    0.4529    0.2322
Li    Li1422        0.9652    0.4034    0.1268
Li    Li1423        0.9146    0.3942    0.1301
Li    Li1424        0.9731    0.4367    0.4973
Li    Li1425        0.8076    0.4838    0.6460
Li    Li1426        0.8277    0.4831    0.6130
Li    Li1427        0.8257    0.4469    0.9844
Li    Li1428        0.8100    0.4730    0.7515
Li    Li1429        0.7964    0.4970    0.8975
Li    Li1430        0.8432    0.4914    0.8659
Li    Li1431        0.9033    0.5436    0.0011
Li    Li1432        0.9522    0.5103    0.3596
Li    Li1433        0.8329    0.5910    0.3636
Li    Li1434        0.9595    0.5005    0.6071
Li    Li1435        0.7902    0.5910    0.8953
Li    Li1436        0.9179    0.6475    0.0046
Li    Li1437        0.9450    0.6146    0.1279
Li    Li1438        0.9584    0.6073    0.3554
Li    Li1439        0.7914    0.6985    0.3774
Li    Li1440        0.8373    0.6919    0.3618
Li    Li1441        0.7751    0.6438    0.7779
Li    Li1442        0.9679    0.6435    0.9952
Li    Li1443        0.7972    0.6881    0.8919
Li    Li1444        0.9211    0.5952    0.8943
Li    Li1445        0.8301    0.6927    0.8623
Li    Li1446        0.9583    0.7484    0.2266
Li    Li1447        0.9587    0.6944    0.1012
Li    Li1448        0.8301    0.7512    0.7294
Li    Li1449        0.9190    0.7022    0.6258
Li    Li1450        0.8343    0.7992    0.6058
Li    Li1451        0.9096    0.7404    0.7549
Li    Li1452        0.7840    0.7529    0.7616
Li    Li1453        0.9499    0.7039    0.8642
Li    Li1454        0.9611    0.8464    0.2382
Li    Li1455        0.9534    0.7997    0.6017
Li    Li1456        0.9581    0.7950    0.8591
Li    Li1457        0.8345    0.9623    0.7347
Li    Li1458        0.1275    0.0087    0.0983
Li    Li1459        0.1327    0.0834    0.1479
Li    Li1460        0.2606    0.0553    0.2187
Li    Li1461        0.9992    0.0415    0.0339
Li    Li1462        0.2474    0.0986    0.3523
Li    Li1463        0.1207    0.0133    0.3635
Li    Li1464        0.1206    0.0818    0.4010
Li    Li1465        0.1330    0.0408    0.4701
Li    Li1466        0.0207    0.0301    0.2771
Li    Li1467        0.0094    0.0421    0.5328
Li    Li1468        0.2550    0.0939    0.8427
Li    Li1469        0.1419    0.0815    0.9001
Li    Li1470        0.1160    0.0631    0.8063
Li    Li1471        0.2540    0.1674    0.2216
Li    Li1472        0.9948    0.1079    0.4042
Li    Li1473        0.1079    0.1136    0.3467
Li    Li1474        0.1210    0.1551    0.2731
Li    Li1475        0.1241    0.1414    0.4845
Li    Li1476        0.9967    0.1412    0.2817
Li    Li1477        0.1267    0.1944    0.6461
Li    Li1478        0.2392    0.1616    0.7242
Li    Li1479        0.0085    0.1087    0.8966
Li    Li1480        0.1249    0.1046    0.8461
Li    Li1481        0.1174    0.1813    0.9026
Li    Li1482        0.1443    0.1416    0.9686
Li    Li1483        0.9898    0.1420    0.7946
Li    Li1484        0.0168    0.2105    0.1500
Li    Li1485        0.1048    0.2667    0.0201
Li    Li1486        0.1384    0.2402    0.2172
Li    Li1487        0.2656    0.2596    0.2290
Li    Li1488        0.0009    0.2131    0.3986
Li    Li1489        0.1247    0.2129    0.3480
Li    Li1490        0.9862    0.2336    0.2781
Li    Li1491        0.9848    0.2208    0.8926
Li    Li1492        0.2523    0.2894    0.8373
Li    Li1493        0.1483    0.2208    0.8516
Li    Li1494        0.1096    0.2887    0.9092
Li    Li1495        0.1246    0.2595    0.7767
Li    Li1496        0.2535    0.3882    0.0962
Li    Li1497        0.1270    0.3922    0.1495
Li    Li1498        0.1152    0.3676    0.0270
Li    Li1499        0.1290    0.3426    0.2177
Li    Li1500        0.0057    0.3411    0.0271
Li    Li1501        0.1292    0.3886    0.9015
Li    Li1502        0.0158    0.4164    0.1509
Li    Li1503        0.1321    0.4117    0.0958
Li    Li1504        0.1090    0.4308    0.2182
Li    Li1505        0.2598    0.4938    0.3451
Li    Li1506        0.1157    0.4895    0.4165
Li    Li1507        0.1235    0.4636    0.2722
Li    Li1508        0.9783    0.4326    0.2845
Li    Li1509        0.2463    0.4875    0.5991
Li    Li1510        0.1291    0.4877    0.6558
Li    Li1511        0.0085    0.4423    0.5128
Li    Li1512        0.9930    0.4111    0.9033
Li    Li1513        0.1322    0.4115    0.8446
Li    Li1514        0.2272    0.4686    0.9660
Li    Li1515        0.9939    0.5068    0.4200
Li    Li1516        0.2306    0.5791    0.3471
Li    Li1517        0.1325    0.5190    0.3475
Li    Li1518        0.1155    0.5903    0.4090
Li    Li1519        0.1194    0.5608    0.2794
Li    Li1520        0.2532    0.5854    0.5982
Li    Li1521        0.1293    0.5162    0.6035
Li    Li1522        0.1232    0.5856    0.6512
Li    Li1523        0.1366    0.5416    0.7064
Li    Li1524        0.2596    0.5633    0.7093
Li    Li1525        0.0081    0.5370    0.5323
Li    Li1526        0.9972    0.5105    0.9026
Li    Li1527        0.1252    0.5091    0.8617
Li    Li1528        0.1200    0.5929    0.9102
Li    Li1529        0.1183    0.5637    0.7845
Li    Li1530        0.2411    0.5637    0.9700
Li    Li1531        0.9888    0.6185    0.1450
Li    Li1532        0.2518    0.6905    0.0997
Li    Li1533        0.1254    0.6557    0.0364
Li    Li1534        0.9961    0.6341    0.0226
Li    Li1535        0.9918    0.6167    0.4081
Li    Li1536        0.2591    0.6789    0.3545
Li    Li1537        0.1370    0.6173    0.3579
Li    Li1538        0.1048    0.6898    0.3986
Li    Li1539        0.1194    0.6528    0.2859
Li    Li1540        0.1343    0.6431    0.4493
Li    Li1541        0.2616    0.6657    0.4759
Li    Li1542        0.9866    0.6390    0.2656
Li    Li1543        0.2357    0.6783    0.5925
Li    Li1544        0.1155    0.6668    0.5256
Li    Li1545        0.1271    0.6364    0.7159
Li    Li1546        0.2648    0.6570    0.7092
Li    Li1547        0.9939    0.6203    0.9018
Li    Li1548        0.1160    0.6785    0.8927
Li    Li1549        0.9805    0.6351    0.7684
Li    Li1550        0.2332    0.7821    0.1004
Li    Li1551        0.2429    0.7636    0.2257
Li    Li1552        0.0215    0.7100    0.4096
Li    Li1553        0.1295    0.7414    0.4749
Li    Li1554        0.0185    0.7229    0.2745
Li    Li1555        0.9912    0.7080    0.6715
Li    Li1556        0.1099    0.7768    0.6461
Li    Li1557        0.1374    0.7354    0.7230
Li    Li1558        0.2567    0.7825    0.8527
Li    Li1559        0.1192    0.7108    0.8422
Li    Li1560        0.1168    0.7673    0.7868
Li    Li1561        0.1268    0.7370    0.9812
Li    Li1562        0.2371    0.7693    0.9680
Li    Li1563        0.2541    0.8917    0.0904
Li    Li1564        0.1244    0.8544    0.0278
Li    Li1565        0.1046    0.8315    0.2302
Li    Li1566        0.9894    0.8372    0.0314
Li    Li1567        0.1448    0.8814    0.3974
Li    Li1568        0.1345    0.8421    0.4670
Li    Li1569        0.0171    0.8121    0.6570
Li    Li1570        0.1194    0.8578    0.5345
Li    Li1571        0.2517    0.8695    0.7206
Li    Li1572        0.1339    0.8825    0.8991
Li    Li1573        0.2395    0.8646    0.9704
Li    Li1574        0.9935    0.8369    0.7870
Li    Li1575        0.2394    0.9847    0.0947
Li    Li1576        0.1093    0.9596    0.0357
Li    Li1577        0.2590    0.9835    0.3593
Li    Li1578        0.1155    0.9801    0.3943
Li    Li1579        0.1346    0.9406    0.4613
Li    Li1580        0.9937    0.9214    0.6516
Li    Li1581        0.2556    0.9834    0.5957
Li    Li1582        0.2464    0.9629    0.7200
Li    Li1583        0.9905    0.9085    0.9155
Li    Li1584        0.1344    0.9146    0.8458
Li    Li1585        0.1164    0.9837    0.8896
Li    Li1586        0.1104    0.9648    0.7738
Li    Li1587        0.1190    0.9410    0.9845
Li    Li1588        0.2418    0.9682    0.9678
Li    Li1589        0.3780    0.0866    0.1541
Li    Li1590        0.5031    0.0651    0.2249
Li    Li1591        0.2440    0.0165    0.3954
Li    Li1592        0.3798    0.0077    0.3431
Li    Li1593        0.3496    0.0869    0.4135
Li    Li1594        0.3711    0.0383    0.4740
Li    Li1595        0.2533    0.0358    0.2745
Li    Li1596        0.3590    0.0236    0.7256
Li    Li1597        0.3650    0.0789    0.8985
Li    Li1598        0.5001    0.0546    0.9457
Li    Li1599        0.2388    0.0334    0.7850
Li    Li1600        0.2502    0.1119    0.1567
Li    Li1601        0.4911    0.1831    0.0971
Li    Li1602        0.3536    0.1191    0.0919
Li    Li1603        0.3639    0.1879    0.1637
Li    Li1604        0.3799    0.1405    0.7188
Li    Li1605        0.2353    0.1129    0.8907
Li    Li1606        0.4794    0.1789    0.8468
Li    Li1607        0.3852    0.1103    0.8354
Li    Li1608        0.3902    0.1690    0.7753
Li    Li1609        0.3827    0.1355    0.9542
Li    Li1610        0.2402    0.1434    0.7865
Li    Li1611        0.4864    0.2870    0.0941
Li    Li1612        0.3709    0.2806    0.1503
Li    Li1613        0.3708    0.2652    0.0213
Li    Li1614        0.3628    0.2380    0.2286
Li    Li1615        0.2535    0.2362    0.2836
Li    Li1616        0.2552    0.2123    0.6553
Li    Li1617        0.2434    0.2361    0.5358
Li    Li1618        0.5218    0.2812    0.8534
Li    Li1619        0.3873    0.2176    0.8429
Li    Li1620        0.3809    0.2877    0.9083
Li    Li1621        0.3823    0.2315    0.9783
Li    Li1622        0.4935    0.2631    0.9696
Li    Li1623        0.2582    0.2361    0.7795
Li    Li1624        0.2313    0.3213    0.1471
Li    Li1625        0.3701    0.3121    0.0953
Li    Li1626        0.3609    0.3858    0.1644
Li    Li1627        0.3831    0.3395    0.2184
Li    Li1628        0.5142    0.3632    0.2247
Li    Li1629        0.2542    0.3393    0.0318
Li    Li1630        0.3728    0.3571    0.2888
Li    Li1631        0.5070    0.3843    0.5859
Li    Li1632        0.2362    0.3224    0.8994
Li    Li1633        0.3638    0.3082    0.8516
Li    Li1634        0.2607    0.4177    0.1572
Li    Li1635        0.5116    0.4867    0.0977
Li    Li1636        0.3873    0.4166    0.1050
Li    Li1637        0.3613    0.4792    0.1410
Li    Li1638        0.3611    0.4590    0.0306
Li    Li1639        0.3749    0.4346    0.2284
Li    Li1640        0.2496    0.4338    0.0277
Li    Li1641        0.4850    0.4851    0.3477
Li    Li1642        0.3717    0.4638    0.2803
Li    Li1643        0.2409    0.4420    0.2778
Li    Li1644        0.3602    0.4348    0.9665
Li    Li1645        0.2507    0.5076    0.1605
Li    Li1646        0.3733    0.5108    0.1003
Li    Li1647        0.3755    0.5937    0.1548
Li    Li1648        0.5084    0.5702    0.2282
Li    Li1649        0.2439    0.5199    0.3955
Li    Li1650        0.5031    0.5837    0.3436
Li    Li1651        0.3581    0.5163    0.3470
Li    Li1652        0.5171    0.5709    0.4857
Li    Li1653        0.2353    0.5161    0.6439
Li    Li1654        0.2465    0.5048    0.9086
Li    Li1655        0.5021    0.5883    0.8487
Li    Li1656        0.3676    0.5880    0.9150
Li    Li1657        0.3797    0.5640    0.7819
Li    Li1658        0.3612    0.5457    0.9704
Li    Li1659        0.2449    0.5450    0.7918
Li    Li1660        0.2425    0.6198    0.1440
Li    Li1661        0.3582    0.6853    0.1594
Li    Li1662        0.3914    0.6375    0.2192
Li    Li1663        0.2447    0.6178    0.3969
Li    Li1664        0.3776    0.6879    0.3965
Li    Li1665        0.2576    0.6111    0.6437
Li    Li1666        0.3757    0.6657    0.5340
Li    Li1667        0.3580    0.6396    0.7162
Li    Li1668        0.4919    0.6590    0.7152
Li    Li1669        0.2499    0.6382    0.5349
Li    Li1670        0.2367    0.6175    0.9054
Li    Li1671        0.3863    0.6057    0.8366
Li    Li1672        0.3801    0.6904    0.9033
Li    Li1673        0.3577    0.6389    0.9737
Li    Li1674        0.2685    0.6340    0.7870
Li    Li1675        0.4965    0.7936    0.0951
Li    Li1676        0.3646    0.7727    0.0184
Li    Li1677        0.3828    0.7314    0.2332
Li    Li1678        0.5021    0.7862    0.3528
Li    Li1679        0.3578    0.7164    0.3417
Li    Li1680        0.3735    0.7680    0.2715
Li    Li1681        0.2556    0.7385    0.2802
Li    Li1682        0.5112    0.7834    0.5996
Li    Li1683        0.3579    0.7108    0.5983
Li    Li1684        0.3773    0.7836    0.6543
Li    Li1685        0.3790    0.7634    0.5354
Li    Li1686        0.3794    0.7323    0.7276
Li    Li1687        0.5008    0.7623    0.7191
Li    Li1688        0.2533    0.7384    0.5318
Li    Li1689        0.2372    0.7119    0.8886
Li    Li1690        0.3704    0.7843    0.8962
Li    Li1691        0.3651    0.7619    0.7826
Li    Li1692        0.4050    0.7408    0.9575
Li    Li1693        0.4916    0.7607    0.9681
Li    Li1694        0.2509    0.7383    0.7772
Li    Li1695        0.2466    0.8053    0.1559
Li    Li1696        0.4049    0.8175    0.0795
Li    Li1697        0.3720    0.8863    0.1524
Li    Li1698        0.3724    0.8399    0.2204
Li    Li1699        0.5050    0.8517    0.2145
Li    Li1700        0.4992    0.8909    0.3658
Li    Li1701        0.4946    0.8655    0.4719
Li    Li1702        0.5091    0.8915    0.5737
Li    Li1703        0.3717    0.8001    0.6029
Li    Li1704        0.3527    0.8419    0.7247
Li    Li1705        0.5125    0.8598    0.7133
Li    Li1706        0.3606    0.8669    0.7714
Li    Li1707        0.5189    0.9877    0.0944
Li    Li1708        0.3908    0.9187    0.1046
Li    Li1709        0.2371    0.9404    0.0360
Li    Li1710        0.4831    0.9829    0.3488
Li    Li1711        0.3755    0.9576    0.2768
Li    Li1712        0.2480    0.9345    0.2732
Li    Li1713        0.2665    0.9114    0.6517
Li    Li1714        0.5029    0.9856    0.6023
Li    Li1715        0.3764    0.9123    0.5971
Li    Li1716        0.3799    0.9891    0.6537
Li    Li1717        0.3821    0.9388    0.7215
Li    Li1718        0.2446    0.9093    0.9067
Li    Li1719        0.3692    0.9105    0.8544
Li    Li1720        0.4806    0.0125    0.1573
Li    Li1721        0.7533    0.0925    0.0926
Li    Li1722        0.6307    0.0880    0.1541
Li    Li1723        0.6422    0.0549    0.0280
Li    Li1724        0.6158    0.0352    0.2229
Li    Li1725        0.6185    0.0558    0.2726
Li    Li1726        0.4894    0.0317    0.2669
Li    Li1727        0.5181    0.0146    0.6569
Li    Li1728        0.6076    0.0327    0.9764
Li    Li1729        0.7718    0.0794    0.9788
Li    Li1730        0.5010    0.1141    0.1519
Li    Li1731        0.7615    0.1853    0.1018
Li    Li1732        0.6094    0.1751    0.0143
Li    Li1733        0.7635    0.1674    0.2263
Li    Li1734        0.7560    0.1933    0.3420
Li    Li1735        0.6203    0.1846    0.8967
Li    Li1736        0.6268    0.1375    0.9717
Li    Li1737        0.4922    0.1305    0.7690
Li    Li1738        0.4766    0.2145    0.1565
Li    Li1739        0.7621    0.2843    0.0952
Li    Li1740        0.7411    0.2934    0.5973
Li    Li1741        0.7618    0.2606    0.7244
Li    Li1742        0.7546    0.2874    0.8614
Li    Li1743        0.6207    0.2965    0.8994
Li    Li1744        0.5162    0.3153    0.1568
Li    Li1745        0.6086    0.3906    0.1669
Li    Li1746        0.6331    0.3281    0.2281
Li    Li1747        0.4855    0.3384    0.0331
Li    Li1748        0.7669    0.3834    0.6021
Li    Li1749        0.6166    0.3808    0.6449
Li    Li1750        0.7523    0.3822    0.8462
Li    Li1751        0.6270    0.3866    0.9096
Li    Li1752        0.7545    0.3644    0.9760
Li    Li1753        0.7574    0.4929    0.0954
Li    Li1754        0.6098    0.4867    0.1336
Li    Li1755        0.7537    0.4844    0.3448
Li    Li1756        0.4975    0.4368    0.2650
Li    Li1757        0.4920    0.4092    0.6628
Li    Li1758        0.6175    0.4168    0.5973
Li    Li1759        0.6145    0.4469    0.7355
Li    Li1760        0.7610    0.4560    0.7144
Li    Li1761        0.7678    0.4791    0.8621
Li    Li1762        0.6271    0.4196    0.8608
Li    Li1763        0.6413    0.4880    0.9066
Li    Li1764        0.6123    0.4666    0.7842
Li    Li1765        0.7526    0.4582    0.9674
Li    Li1766        0.6231    0.5126    0.0993
Li    Li1767        0.6293    0.5888    0.1554
Li    Li1768        0.6251    0.5617    0.0310
Li    Li1769        0.5009    0.5421    0.0222
Li    Li1770        0.6142    0.5623    0.2677
Li    Li1771        0.4978    0.5111    0.6563
Li    Li1772        0.7481    0.5959    0.8444
Li    Li1773        0.6171    0.5122    0.8443
Li    Li1774        0.6086    0.5908    0.9065
Li    Li1775        0.6303    0.5604    0.7725
Li    Li1776        0.6372    0.5322    0.9801
Li    Li1777        0.4889    0.5427    0.7867
Li    Li1778        0.6262    0.6156    0.0979
Li    Li1779        0.6024    0.6574    0.0287
Li    Li1780        0.7371    0.6687    0.2200
Li    Li1781        0.4955    0.6109    0.4133
Li    Li1782        0.6181    0.6385    0.4716
Li    Li1783        0.7529    0.6646    0.4872
Li    Li1784        0.5034    0.6142    0.6360
Li    Li1785        0.6436    0.6099    0.5946
Li    Li1786        0.6185    0.6827    0.6448
Li    Li1787        0.6419    0.6650    0.5311
Li    Li1788        0.7525    0.6656    0.7262
Li    Li1789        0.5037    0.6358    0.5343
Li    Li1790        0.5124    0.6163    0.9055
Li    Li1791        0.6084    0.6368    0.9682
Li    Li1792        0.4957    0.7389    0.0240
Li    Li1793        0.6194    0.7885    0.4122
Li    Li1794        0.6172    0.7615    0.2785
Li    Li1795        0.6348    0.7406    0.4670
Li    Li1796        0.4877    0.7143    0.6574
Li    Li1797        0.6244    0.7118    0.5907
Li    Li1798        0.6260    0.7345    0.7260
Li    Li1799        0.5242    0.7368    0.5343
Li    Li1800        0.7517    0.7869    0.8476
Li    Li1801        0.6154    0.7680    0.7794
Li    Li1802        0.5020    0.7454    0.7866
Li    Li1803        0.5060    0.8093    0.1540
Li    Li1804        0.6154    0.8901    0.1627
Li    Li1805        0.6184    0.8303    0.2220
Li    Li1806        0.4964    0.8391    0.0323
Li    Li1807        0.5019    0.8110    0.6419
Li    Li1808        0.6282    0.8380    0.7221
Li    Li1809        0.4975    0.8424    0.5322
Li    Li1810        0.4947    0.8055    0.9126
Li    Li1811        0.6325    0.8121    0.8288
Li    Li1812        0.6207    0.8883    0.9030
Li    Li1813        0.6334    0.8640    0.7887
Li    Li1814        0.4899    0.8265    0.7693
Li    Li1815        0.7658    0.9861    0.0894
Li    Li1816        0.6222    0.9086    0.0893
Li    Li1817        0.6146    0.9584    0.0305
Li    Li1818        0.6268    0.9353    0.2327
Li    Li1819        0.4907    0.9074    0.4128
Li    Li1820        0.5973    0.9906    0.6613
Li    Li1821        0.6285    0.9362    0.7232
Li    Li1822        0.6228    0.9124    0.8497
Li    Li1823        0.6183    0.9684    0.7756
Li    Li1824        0.6319    0.9355    0.9714
Li    Li1825        0.7517    0.9579    0.9742
Li    Li1826        0.8789    0.0369    0.2272
Li    Li1827        0.9822    0.0792    0.3483
Li    Li1828        0.8920    0.0211    0.3542
Li    Li1829        0.8683    0.0706    0.2660
Li    Li1830        0.0013    0.0629    0.4759
Li    Li1831        0.8621    0.0812    0.9074
Li    Li1832        0.8636    0.0347    0.9739
Li    Li1833        0.0110    0.0552    0.9652
Li    Li1834        0.7726    0.1245    0.1525
Li    Li1835        0.7569    0.1384    0.0242
Li    Li1836        0.9988    0.1916    0.3412
Li    Li1837        0.8621    0.1143    0.3466
Li    Li1838        0.8589    0.1943    0.4117
Li    Li1839        0.8802    0.1619    0.2818
Li    Li1840        0.8559    0.1341    0.4783
Li    Li1841        0.7546    0.1426    0.2831
Li    Li1842        0.8741    0.1479    0.7227
Li    Li1843        0.0089    0.1663    0.7263
Li    Li1844        0.7422    0.1015    0.9044
Li    Li1845        0.0108    0.1895    0.8334
Li    Li1846        0.8734    0.2249    0.0958
Li    Li1847        0.8504    0.2852    0.1602
Li    Li1848        0.8865    0.2331    0.2332
Li    Li1849        0.9970    0.2610    0.2226
Li    Li1850        0.7426    0.2399    0.0377
Li    Li1851        0.8868    0.2675    0.2788
Li    Li1852        0.9991    0.2597    0.4672
Li    Li1853        0.0043    0.2881    0.5943
Li    Li1854        0.8887    0.2122    0.5894
Li    Li1855        0.8680    0.2791    0.6480
Li    Li1856        0.8925    0.2380    0.7141
Li    Li1857        0.7476    0.2402    0.5358
Li    Li1858        0.9953    0.2652    0.9713
Li    Li1859        0.7504    0.3174    0.1533
Li    Li1860        0.8767    0.3117    0.0885
Li    Li1861        0.8922    0.3607    0.0234
Li    Li1862        0.7596    0.3417    0.0239
Li    Li1863        0.7509    0.3055    0.4091
Li    Li1864        0.7276    0.3210    0.6532
Li    Li1865        0.8650    0.3136    0.5934
Li    Li1866        0.8578    0.3922    0.6640
Li    Li1867        0.7704    0.3234    0.9015
Li    Li1868        0.0102    0.3944    0.8794
Li    Li1869        0.8748    0.3115    0.8397
Li    Li1870        0.8894    0.3857    0.9066
Li    Li1871        0.8486    0.3694    0.7757
Li    Li1872        0.0038    0.3614    0.9631
Li    Li1873        0.7477    0.3391    0.7804
Li    Li1874        0.0043    0.4877    0.0972
Li    Li1875        0.8478    0.4792    0.0128
Li    Li1876        0.9977    0.4555    0.2184
Li    Li1877        0.7314    0.4351    0.0135
Li    Li1878        0.9978    0.4876    0.3468
Li    Li1879        0.8936    0.4948    0.4096
Li    Li1880        0.8843    0.4567    0.2716
Li    Li1881        0.8829    0.4398    0.4710
Li    Li1882        0.7556    0.4344    0.2776
Li    Li1883        0.8526    0.4852    0.6541
Li    Li1884        0.8716    0.4686    0.5215
Li    Li1885        0.8720    0.4430    0.7102
Li    Li1886        0.7533    0.4415    0.5385
Li    Li1887        0.7214    0.4160    0.9123
Li    Li1888        0.8676    0.4459    0.9777
Li    Li1889        0.7393    0.4366    0.7703
Li    Li1890        0.9830    0.5879    0.0979
Li    Li1891        0.8796    0.5177    0.0971
Li    Li1892        0.8516    0.5832    0.1608
Li    Li1893        0.8799    0.5361    0.2223
Li    Li1894        0.0090    0.5781    0.3479
Li    Li1895        0.8654    0.5902    0.3959
Li    Li1896        0.8622    0.5672    0.2950
Li    Li1897        0.8913    0.5430    0.4624
Li    Li1898        0.7524    0.5363    0.2781
Li    Li1899        0.7343    0.5132    0.9067
Li    Li1900        0.9978    0.5883    0.8445
Li    Li1901        0.8750    0.5077    0.8385
Li    Li1902        0.7382    0.5409    0.7806
Li    Li1903        0.9980    0.6913    0.0928
Li    Li1904        0.8555    0.6139    0.0973
Li    Li1905        0.8725    0.6633    0.0163
Li    Li1906        0.8879    0.6362    0.2208
Li    Li1907        0.0046    0.6624    0.2293
Li    Li1908        0.0181    0.6859    0.3402
Li    Li1909        0.8889    0.6142    0.3589
Li    Li1910        0.0020    0.6612    0.4659
Li    Li1911        0.8692    0.6919    0.6623
Li    Li1912        0.9934    0.6624    0.7263
Li    Li1913        0.8779    0.6893    0.9039
Li    Li1914        0.8635    0.6621    0.7835
Li    Li1915        0.8926    0.6404    0.9741
Li    Li1916        0.9968    0.6552    0.9808
Li    Li1917        0.7346    0.6365    0.7726
Li    Li1918        0.7352    0.7106    0.1606
Li    Li1919        0.0182    0.7859    0.0905
Li    Li1920        0.8565    0.7148    0.0988
Li    Li1921        0.8707    0.7830    0.1475
Li    Li1922        0.8624    0.7333    0.2212
Li    Li1923        0.7536    0.7180    0.4086
Li    Li1924        0.0077    0.7865    0.6078
Li    Li1925        0.8935    0.7706    0.5283
Li    Li1926        0.8904    0.7363    0.7145
Li    Li1927        0.7231    0.7173    0.5212
Li    Li1928        0.7387    0.7123    0.9216
Li    Li1929        0.0110    0.7956    0.8434
Li    Li1930        0.8829    0.7191    0.8562
Li    Li1931        0.8902    0.7653    0.7777
Li    Li1932        0.7387    0.7349    0.7742
Li    Li1933        0.9968    0.8878    0.0927
Li    Li1934        0.8748    0.8108    0.0889
Li    Li1935        0.8836    0.8330    0.2301
Li    Li1936        0.7562    0.8186    0.6565
Li    Li1937        0.0152    0.8905    0.5840
Li    Li1938        0.8797    0.8566    0.5258
Li    Li1939        0.9851    0.8854    0.8417
Li    Li1940        0.8772    0.8093    0.8352
Li    Li1941        0.0012    0.8649    0.9749
Li    Li1942        0.9981    0.9837    0.0983
Li    Li1943        0.8850    0.9327    0.7302
Li    Li1944        0.0097    0.9630    0.7208
Li    Li1945        0.8749    0.9591    0.7788
Li    Li1946        0.9975    0.9609    0.9851
