data_max_cluster
_audit_creation_method         'generated by data2config v5.5c'
 
_cell_length_a                  84.92680
_cell_length_b                  87.57400
_cell_length_c                  75.14280
_cell_angle_alpha               90.00000
_cell_angle_beta                96.73700
_cell_angle_gamma               90.00000
 
loop_
_symmetry_equiv_pos_as_xyz
'+x,+y,+z'
 
loop_
_atom_site_type_symbol
_atom_site_label
_atom_site_fract_x
_atom_site_fract_y
_atom_site_fract_z
Li    Li1        0.1610    0.0174    0.1005
Li    Li2        0.2145    0.0188    0.1516
Li    Li3        0.0852    0.0598    0.3037
Li    Li4        0.0318    0.0893    0.3358
Li    Li5        0.1545    0.0293    0.7193
Li    Li6        0.0891    0.0904    0.9120
Li    Li7        0.0360    0.0983    0.8465
Li    Li8        0.2078    0.0124    0.9016
Li    Li9        0.1668    0.1409    0.4747
Li    Li10        0.0926    0.1845    0.4066
Li    Li11        0.0369    0.1848    0.3316
Li    Li12        0.1682    0.1523    0.7063
Li    Li13        0.0888    0.1659    0.5326
Li    Li14        0.0870    0.1924    0.6715
Li    Li15        0.1592    0.1417    0.9507
Li    Li16        0.0396    0.2928    0.0742
Li    Li17        0.2099    0.2200    0.4074
Li    Li18        0.0332    0.2621    0.7216
Li    Li19        0.0893    0.2534    0.5358
Li    Li20        0.1643    0.2067    0.5967
Li    Li21        0.2139    0.1839    0.6766
Li    Li22        0.2146    0.2408    0.7881
Li    Li23        0.0445    0.2850    0.8370
Li    Li24        0.2308    0.3243    0.2739
Li    Li25        0.0355    0.3633    0.4520
Li    Li26        0.0840    0.3652    0.3070
Li    Li27        0.0318    0.3911    0.3441
Li    Li28        0.1707    0.3353    0.7095
Li    Li29        0.2186    0.3329    0.7899
Li    Li30        0.0347    0.3610    0.9604
Li    Li31        0.0947    0.3797    0.9134
Li    Li32        0.0791    0.4834    0.1627
Li    Li33        0.1662    0.4133    0.0958
Li    Li34        0.2052    0.4133    0.1662
Li    Li35        0.0361    0.4769    0.4790
Li    Li36        0.0979    0.4838    0.4098
Li    Li37        0.0405    0.4917    0.3322
Li    Li38        0.2216    0.4174    0.4094
Li    Li39        0.1596    0.4439    0.7108
Li    Li40        0.0854    0.4595    0.5501
Li    Li41        0.2236    0.4251    0.7698
Li    Li42        0.1610    0.4407    0.9571
Li    Li43        0.0844    0.4606    0.7960
Li    Li44        0.2071    0.4085    0.9150
Li    Li45        0.0239    0.5496    0.4785
Li    Li46        0.1581    0.5393    0.4615
Li    Li47        0.2147    0.5154    0.4207
Li    Li48        0.1685    0.5114    0.5832
Li    Li49        0.0938    0.5853    0.9138
Li    Li50        0.2181    0.6349    0.0304
Li    Li51        0.0301    0.6815    0.2414
Li    Li52        0.1625    0.6323    0.2092
Li    Li53        0.0316    0.6883    0.0824
Li    Li54        0.2119    0.6337    0.2852
Li    Li55        0.1009    0.6912    0.4128
Li    Li56        0.0373    0.6798    0.3480
Li    Li57        0.1627    0.6117    0.5838
Li    Li58        0.0320    0.7620    0.2100
Li    Li59        0.0844    0.7629    0.0233
Li    Li60        0.1522    0.7348    0.4717
Li    Li61        0.2076    0.7070    0.4237
Li    Li62        0.2079    0.7395    0.5375
Li    Li63        0.0451    0.7674    0.7226
Li    Li64        0.2118    0.7179    0.8981
Li    Li65        0.2189    0.8216    0.0183
Li    Li66        0.1674    0.8102    0.0771
Li    Li67        0.2235    0.8131    0.1632
Li    Li68        0.1073    0.8661    0.2841
Li    Li69        0.0465    0.8966    0.3402
Li    Li70        0.0889    0.8620    0.5173
Li    Li71        0.0365    0.8880    0.5860
Li    Li72        0.0377    0.8872    0.8454
Li    Li73        0.1481    0.9120    0.3427
Li    Li74        0.0431    0.9631    0.7036
Li    Li75        0.2239    0.9326    0.7867
Li    Li76        0.1615    0.9381    0.9680
Li    Li77        0.0894    0.9668    0.7849
Li    Li78        0.0841    0.9891    0.9117
Li    Li79        0.4623    0.0300    0.2880
Li    Li80        0.3332    0.0652    0.2830
Li    Li81        0.4118    0.0118    0.3211
Li    Li82        0.3380    0.0692    0.7739
Li    Li83        0.2874    0.1645    0.2237
Li    Li84        0.4056    0.1362    0.2134
Li    Li85        0.4601    0.1101    0.1690
Li    Li86        0.2901    0.1615    0.7112
Li    Li87        0.3357    0.1863    0.6803
Li    Li88        0.2908    0.1709    0.9837
Li    Li89        0.3366    0.1626    0.7909
Li    Li90        0.4055    0.1132    0.8361
Li    Li91        0.4130    0.2396    0.2137
Li    Li92        0.3353    0.2878    0.1729
Li    Li93        0.4612    0.2141    0.1664
Li    Li94        0.2825    0.2650    0.4748
Li    Li95        0.4504    0.2341    0.7620
Li    Li96        0.4079    0.2363    0.9640
Li    Li97        0.4567    0.2128    0.9148
Li    Li98        0.4619    0.3334    0.0381
Li    Li99        0.2873    0.3620    0.2214
Li    Li100        0.4092    0.3313    0.2156
Li    Li101        0.3457    0.3581    0.0406
Li    Li102        0.3309    0.3901    0.1649
Li    Li103        0.4102    0.3166    0.0824
Li    Li104        0.2918    0.3858    0.1018
Li    Li105        0.4630    0.3033    0.1600
Li    Li106        0.2899    0.3678    0.4578
Li    Li107        0.3342    0.3894    0.4261
Li    Li108        0.2967    0.3786    0.7225
Li    Li109        0.4087    0.3410    0.7051
Li    Li110        0.3291    0.3608    0.5392
Li    Li111        0.3366    0.3897    0.6694
Li    Li112        0.4112    0.3115    0.5881
Li    Li113        0.4113    0.3408    0.9577
Li    Li114        0.2927    0.3852    0.8327
Li    Li115        0.3402    0.4644    0.0333
Li    Li116        0.3338    0.4658    0.7956
Li    Li117        0.3492    0.4899    0.9082
Li    Li118        0.3499    0.5672    0.0303
Li    Li119        0.3364    0.5920    0.1603
Li    Li120        0.2831    0.5825    0.0814
Li    Li121        0.4022    0.5129    0.3390
Li    Li122        0.2810    0.5859    0.3346
Li    Li123        0.4033    0.5338    0.7150
Li    Li124        0.2862    0.5694    0.9672
Li    Li125        0.4156    0.5454    0.9664
Li    Li126        0.4159    0.5117    0.8391
Li    Li127        0.3331    0.6873    0.1696
Li    Li128        0.4017    0.5991    0.0788
Li    Li129        0.4646    0.6333    0.2850
Li    Li130        0.3311    0.6548    0.2979
Li    Li131        0.4160    0.6079    0.3260
Li    Li132        0.4638    0.6357    0.5411
Li    Li133        0.3607    0.6934    0.6525
Li    Li134        0.4079    0.6384    0.9683
Li    Li135        0.3364    0.6633    0.7958
Li    Li136        0.3326    0.6913    0.9092
Li    Li137        0.4586    0.6139    0.9081
Li    Li138        0.4651    0.7340    0.0342
Li    Li139        0.2938    0.7629    0.4694
Li    Li140        0.3245    0.7624    0.2869
Li    Li141        0.4100    0.7117    0.3284
Li    Li142        0.2822    0.7893    0.5717
Li    Li143        0.4610    0.7098    0.6701
Li    Li144        0.4126    0.8482    0.2048
Li    Li145        0.3469    0.8754    0.0286
Li    Li146        0.2826    0.8915    0.0860
Li    Li147        0.3395    0.8574    0.2877
Li    Li148        0.4704    0.9451    0.0417
Li    Li149        0.2909    0.9548    0.1992
Li    Li150        0.4120    0.9384    0.2328
Li    Li151        0.3338    0.9886    0.1660
Li    Li152        0.4135    0.9105    0.3374
Li    Li153        0.6539    0.0387    0.7250
Li    Li154        0.5797    0.0660    0.5483
Li    Li155        0.7169    0.0409    0.8014
Li    Li156        0.7162    0.1434    0.0441
Li    Li157        0.5287    0.1848    0.0843
Li    Li158        0.5722    0.1688    0.2769
Li    Li159        0.7158    0.1254    0.3993
Li    Li160        0.5464    0.1627    0.9597
Li    Li161        0.5279    0.2850    0.0910
Li    Li162        0.6565    0.2377    0.4569
Li    Li163        0.5841    0.2631    0.2946
Li    Li164        0.5918    0.2878    0.4188
Li    Li165        0.7104    0.2161    0.4087
Li    Li166        0.5416    0.2622    0.7019
Li    Li167        0.5866    0.2867    0.6547
Li    Li168        0.7122    0.2052    0.6683
Li    Li169        0.5818    0.2605    0.7948
Li    Li170        0.5929    0.2915    0.9218
Li    Li171        0.5929    0.3956    0.1569
Li    Li172        0.6679    0.3130    0.0768
Li    Li173        0.7070    0.3225    0.2636
Li    Li174        0.6678    0.3107    0.3178
Li    Li175        0.6579    0.3188    0.5920
Li    Li176        0.5388    0.3625    0.9559
Li    Li177        0.7005    0.3071    0.9206
Li    Li178        0.5920    0.4553    0.5372
Li    Li179        0.5918    0.4895    0.6629
Li    Li180        0.7112    0.5325    0.0434
Li    Li181        0.5831    0.5795    0.1464
Li    Li182        0.5426    0.5836    0.0833
Li    Li183        0.5384    0.5885    0.3523
Li    Li184        0.7181    0.5058    0.4141
Li    Li185        0.5184    0.5586    0.7188
Li    Li186        0.5405    0.5575    0.9510
Li    Li187        0.5950    0.5958    0.9148
Li    Li188        0.6552    0.6312    0.2106
Li    Li189        0.7170    0.6395    0.2793
Li    Li190        0.5825    0.6631    0.2884
Li    Li191        0.5403    0.6912    0.6002
Li    Li192        0.7193    0.6172    0.6604
Li    Li193        0.6658    0.7120    0.0926
Li    Li194        0.5342    0.7646    0.4777
Li    Li195        0.5707    0.8115    0.4302
Li    Li196        0.6583    0.7092    0.3286
Li    Li197        0.7188    0.7154    0.4006
Li    Li198        0.6565    0.7088    0.5810
Li    Li199        0.5278    0.8564    0.2097
Li    Li200        0.5883    0.8703    0.0327
Li    Li201        0.6530    0.8146    0.0875
Li    Li202        0.5288    0.8831    0.0911
Li    Li203        0.7194    0.8380    0.5434
Li    Li204        0.7161    0.8160    0.6498
Li    Li205        0.7207    0.8294    0.7766
Li    Li206        0.5895    0.8866    0.9147
Li    Li207        0.6554    0.8173    0.8316
Li    Li208        0.5877    0.9992    0.1753
Li    Li209        0.5253    0.9832    0.3554
Li    Li210        0.7053    0.9355    0.5474
Li    Li211        0.5339    0.9624    0.7189
Li    Li212        0.6553    0.9388    0.7003
Li    Li213        0.6651    0.9099    0.5852
Li    Li214        0.5385    0.9789    0.8509
Li    Li215        0.7091    0.9106    0.9212
Li    Li216        0.8481    0.0676    0.2838
Li    Li217        0.7956    0.0926    0.3428
Li    Li218        0.9563    0.0326    0.5300
Li    Li219        0.7744    0.0918    0.8383
Li    Li220        0.9615    0.1397    0.0390
Li    Li221        0.9207    0.1399    0.2043
Li    Li222        0.9635    0.1379    0.2931
Li    Li223        0.9068    0.1420    0.4602
Li    Li224        0.8288    0.1882    0.4030
Li    Li225        0.9174    0.1109    0.3218
Li    Li226        0.8416    0.1835    0.9149
Li    Li227        0.7875    0.1954    0.8327
Li    Li228        0.9117    0.2370    0.2121
Li    Li229        0.8276    0.2571    0.0383
Li    Li230        0.9146    0.2153    0.0891
Li    Li231        0.7899    0.2776    0.1044
Li    Li232        0.7945    0.2607    0.4552
Li    Li233        0.9136    0.2094    0.3300
Li    Li234        0.9028    0.2330    0.7187
Li    Li235        0.9197    0.2162    0.5987
Li    Li236        0.7758    0.2782    0.6045
Li    Li237        0.9729    0.2279    0.7697
Li    Li238        0.9163    0.2360    0.9668
Li    Li239        0.9067    0.2118    0.8347
Li    Li240        0.7945    0.3616    0.2206
Li    Li241        0.9138    0.3057    0.0719
Li    Li242        0.7797    0.3830    0.0882
Li    Li243        0.9570    0.3424    0.2935
Li    Li244        0.8514    0.3622    0.2848
Li    Li245        0.9218    0.3172    0.3483
Li    Li246        0.9119    0.3041    0.5777
Li    Li247        0.9609    0.4393    0.0525
Li    Li248        0.7899    0.4892    0.0800
Li    Li249        0.9172    0.4384    0.4614
Li    Li250        0.9188    0.4331    0.9789
Li    Li251        0.9618    0.4160    0.8973
Li    Li252        0.9666    0.5152    0.4159
Li    Li253        0.9666    0.5366    0.5380
Li    Li254        0.9627    0.5144    0.6550
Li    Li255        0.8516    0.6879    0.4091
Li    Li256        0.9206    0.6139    0.3376
Li    Li257        0.9653    0.6115    0.4251
Li    Li258        0.8356    0.6905    0.6507
Li    Li259        0.9090    0.6360    0.9682
Li    Li260        0.8433    0.6572    0.7971
Li    Li261        0.9095    0.6199    0.8394
Li    Li262        0.7855    0.6944    0.8382
Li    Li263        0.9533    0.6189    0.8960
Li    Li264        0.9174    0.7378    0.2018
Li    Li265        0.9653    0.7137    0.1660
Li    Li266        0.8332    0.7731    0.2659
Li    Li267        0.7854    0.7820    0.5918
Li    Li268        0.9651    0.7164    0.6725
Li    Li269        0.9147    0.7398    0.9545
Li    Li270        0.8395    0.7902    0.9152
Li    Li271        0.9011    0.7179    0.8547
Li    Li272        0.9111    0.8413    0.2025
Li    Li273        0.8379    0.8550    0.0441
Li    Li274        0.9111    0.8039    0.0784
Li    Li275        0.9553    0.8122    0.1546
Li    Li276        0.9156    0.8385    0.4439
Li    Li277        0.8385    0.8914    0.6659
Li    Li278        0.9075    0.8147    0.8396
Li    Li279        0.9153    0.9386    0.7113
Li    Li280        0.1925    0.0356    0.1856
Li    Li281        0.2073    0.0095    0.0521
Li    Li282        0.1696    0.0064    0.2034
Li    Li283        0.1664    0.0345    0.3217
Li    Li284        0.0849    0.0655    0.4316
Li    Li285        0.0497    0.0592    0.3205
Li    Li286        0.2080    0.0120    0.3029
Li    Li287        0.0759    0.0863    0.3028
Li    Li288        0.1567    0.0407    0.5724
Li    Li289        0.1549    0.0025    0.7001
Li    Li290        0.0970    0.0566    0.9380
Li    Li291        0.0508    0.0573    0.8156
Li    Li292        0.0850    0.0906    0.8055
Li    Li293        0.1675    0.0057    0.9395
Li    Li294        0.0402    0.1618    0.0690
Li    Li295        0.2189    0.1111    0.0596
Li    Li296        0.1667    0.1342    0.3159
Li    Li297        0.2047    0.1449    0.4275
Li    Li298        0.0523    0.1767    0.4463
Li    Li299        0.2062    0.1042    0.2978
Li    Li300        0.0745    0.1878    0.3001
Li    Li301        0.1716    0.1060    0.4536
Li    Li302        0.1696    0.1358    0.5814
Li    Li303        0.2071    0.1414    0.6794
Li    Li304        0.0466    0.1616    0.5762
Li    Li305        0.0482    0.1909    0.6952
Li    Li306        0.0774    0.1859    0.5536
Li    Li307        0.1769    0.1174    0.6966
Li    Li308        0.1732    0.1365    0.8198
Li    Li309        0.0814    0.1615    0.9261
Li    Li310        0.1967    0.1356    0.9209
Li    Li311        0.0386    0.1826    0.9416
Li    Li312        0.1925    0.1141    0.8085
Li    Li313        0.1654    0.1159    0.9494
Li    Li314        0.2010    0.2388    0.1805
Li    Li315        0.2235    0.1993    0.0711
Li    Li316        0.0905    0.2862    0.0682
Li    Li317        0.0785    0.2676    0.4299
Li    Li318        0.2004    0.2372    0.4301
Li    Li319        0.0434    0.2882    0.4424
Li    Li320        0.0877    0.2896    0.3052
Li    Li321        0.1666    0.2080    0.4430
Li    Li322        0.1685    0.2430    0.5695
Li    Li323        0.2034    0.2239    0.6857
Li    Li324        0.0442    0.2631    0.5700
Li    Li325        0.0517    0.2858    0.6963
Li    Li326        0.1933    0.1993    0.5559
Li    Li327        0.1781    0.2143    0.6928
Li    Li328        0.1626    0.2298    0.8222
Li    Li329        0.0828    0.2663    0.9258
Li    Li330        0.2043    0.2320    0.9341
Li    Li331        0.0427    0.2820    0.9522
Li    Li332        0.0763    0.2966    0.8042
Li    Li333        0.0747    0.3774    0.1849
Li    Li334        0.1999    0.3404    0.1734
Li    Li335        0.2006    0.3136    0.0493
Li    Li336        0.1753    0.3117    0.1925
Li    Li337        0.1685    0.3329    0.3237
Li    Li338        0.0860    0.3589    0.4308
Li    Li339        0.2031    0.3360    0.4226
Li    Li340        0.0424    0.3775    0.3273
Li    Li341        0.2026    0.3144    0.3084
Li    Li342        0.0903    0.3985    0.3142
Li    Li343        0.1724    0.3105    0.4489
Li    Li344        0.2129    0.3493    0.6834
Li    Li345        0.2017    0.3155    0.5564
Li    Li346        0.0812    0.3821    0.5547
Li    Li347        0.1696    0.3395    0.8197
Li    Li348        0.2165    0.3496    0.9353
Li    Li349        0.0400    0.3881    0.8145
Li    Li350        0.0435    0.3746    0.9358
Li    Li351        0.1762    0.3143    0.9505
Li    Li352        0.1719    0.4326    0.0768
Li    Li353        0.0957    0.4584    0.1807
Li    Li354        0.2026    0.4300    0.1839
Li    Li355        0.0470    0.4854    0.1905
Li    Li356        0.2032    0.4125    0.0611
Li    Li357        0.0746    0.4566    0.4288
Li    Li358        0.2021    0.4340    0.4221
Li    Li359        0.0418    0.4611    0.3203
Li    Li360        0.0461    0.4860    0.4482
Li    Li361        0.2028    0.4138    0.3002
Li    Li362        0.0832    0.4869    0.3016
Li    Li363        0.1611    0.4360    0.5718
Li    Li364        0.2042    0.4334    0.6788
Li    Li365        0.0472    0.4646    0.5744
Li    Li366        0.2047    0.4168    0.5532
Li    Li367        0.1722    0.4107    0.6913
Li    Li368        0.1675    0.4249    0.8185
Li    Li369        0.0856    0.4605    0.9257
Li    Li370        0.1970    0.4440    0.9374
Li    Li371        0.0511    0.4638    0.8226
Li    Li372        0.0491    0.5830    0.1889
Li    Li373        0.1759    0.5382    0.3179
Li    Li374        0.0804    0.5631    0.4313
Li    Li375        0.2061    0.5378    0.4300
Li    Li376        0.0473    0.5776    0.3209
Li    Li377        0.0389    0.5920    0.4495
Li    Li378        0.0721    0.5955    0.3081
Li    Li379        0.1681    0.5103    0.4492
Li    Li380        0.1682    0.5363    0.5661
Li    Li381        0.0389    0.5901    0.7039
Li    Li382        0.1986    0.5083    0.5568
Li    Li383        0.0784    0.5932    0.5473
Li    Li384        0.1712    0.5410    0.8239
Li    Li385        0.0830    0.5671    0.9327
Li    Li386        0.2155    0.5393    0.9326
Li    Li387        0.0478    0.5881    0.9507
Li    Li388        0.2091    0.5128    0.8021
Li    Li389        0.0896    0.6624    0.1803
Li    Li390        0.0385    0.6838    0.1953
Li    Li391        0.2039    0.6145    0.0477
Li    Li392        0.0946    0.6670    0.0452
Li    Li393        0.1748    0.6356    0.3263
Li    Li394        0.0784    0.6638    0.4314
Li    Li395        0.1989    0.6359    0.4246
Li    Li396        0.0429    0.6881    0.4491
Li    Li397        0.2054    0.6155    0.3062
Li    Li398        0.1774    0.6436    0.5660
Li    Li399        0.0427    0.6884    0.7009
Li    Li400        0.2033    0.6117    0.5542
Li    Li401        0.1993    0.6315    0.9198
Li    Li402        0.0398    0.6591    0.8193
Li    Li403        0.0429    0.6877    0.9447
Li    Li404        0.1612    0.6148    0.9481
Li    Li405        0.1748    0.7311    0.0763
Li    Li406        0.0770    0.7629    0.1875
Li    Li407        0.0473    0.7646    0.0696
Li    Li408        0.0318    0.7921    0.1864
Li    Li409        0.1673    0.7406    0.3128
Li    Li410        0.2084    0.7363    0.4340
Li    Li411        0.0271    0.7476    0.3084
Li    Li412        0.2099    0.7088    0.3007
Li    Li413        0.1702    0.7186    0.4577
Li    Li414        0.0866    0.7610    0.6827
Li    Li415        0.0449    0.7842    0.6957
Li    Li416        0.2096    0.7431    0.9290
Li    Li417        0.0433    0.7587    0.8247
Li    Li418        0.0815    0.7846    0.8102
Li    Li419        0.1701    0.7192    0.9463
Li    Li420        0.1659    0.8362    0.0718
Li    Li421        0.0799    0.8600    0.1766
Li    Li422        0.2082    0.8362    0.1784
Li    Li423        0.0495    0.8630    0.0737
Li    Li424        0.0517    0.8837    0.1849
Li    Li425        0.2064    0.8076    0.0497
Li    Li426        0.0882    0.9010    0.0588
Li    Li427        0.0489    0.8658    0.3277
Li    Li428        0.0820    0.8862    0.3028
Li    Li429        0.0721    0.8623    0.6773
Li    Li430        0.0501    0.8572    0.5724
Li    Li431        0.0424    0.8923    0.6970
Li    Li432        0.0756    0.8950    0.5625
Li    Li433        0.0765    0.8712    0.9439
Li    Li434        0.0431    0.8867    0.9583
Li    Li435        0.2006    0.8109    0.8063
Li    Li436        0.0808    0.8877    0.8067
Li    Li437        0.0862    0.9728    0.1805
Li    Li438        0.2054    0.9186    0.1681
Li    Li439        0.0368    0.9844    0.1951
Li    Li440        0.1652    0.9423    0.3204
Li    Li441        0.0755    0.9613    0.4331
Li    Li442        0.0443    0.9818    0.4317
Li    Li443        0.2036    0.9087    0.2990
Li    Li444        0.0725    0.9870    0.3079
Li    Li445        0.1673    0.9117    0.4498
Li    Li446        0.0774    0.9576    0.6735
Li    Li447        0.0449    0.9687    0.5769
Li    Li448        0.0896    0.9924    0.5528
Li    Li449        0.1698    0.9362    0.8268
Li    Li450        0.2094    0.9405    0.9277
Li    Li451        0.0530    0.9841    0.9366
Li    Li452        0.2028    0.9106    0.8008
Li    Li453        0.0864    0.9896    0.8012
Li    Li454        0.2970    0.0841    0.2031
Li    Li455        0.4203    0.0368    0.3266
Li    Li456        0.2907    0.0623    0.3169
Li    Li457        0.4547    0.0186    0.3150
Li    Li458        0.4571    0.0083    0.5729
Li    Li459        0.2996    0.0628    0.8153
Li    Li460        0.4534    0.0113    0.8002
Li    Li461        0.3302    0.0901    0.8003
Li    Li462        0.4593    0.1350    0.1816
Li    Li463        0.2945    0.1672    0.0714
Li    Li464        0.2978    0.1863    0.2017
Li    Li465        0.4212    0.1097    0.1907
Li    Li466        0.3287    0.1592    0.6839
Li    Li467        0.2968    0.1857    0.7015
Li    Li468        0.4199    0.1340    0.8249
Li    Li469        0.3046    0.1573    0.9323
Li    Li470        0.4613    0.1311    0.9241
Li    Li471        0.2986    0.1587    0.8172
Li    Li472        0.2964    0.1933    0.9517
Li    Li473        0.4527    0.1156    0.7956
Li    Li474        0.3275    0.1858    0.8063
Li    Li475        0.4218    0.1113    0.9485
Li    Li476        0.3406    0.2449    0.1816
Li    Li477        0.4434    0.2326    0.1711
Li    Li478        0.2974    0.2582    0.0787
Li    Li479        0.2918    0.2892    0.1950
Li    Li480        0.3275    0.2868    0.0515
Li    Li481        0.4182    0.2426    0.3151
Li    Li482        0.4535    0.2204    0.3005
Li    Li483        0.4233    0.2356    0.8236
Li    Li484        0.3303    0.2659    0.9338
Li    Li485        0.4471    0.2374    0.9265
Li    Li486        0.2907    0.2712    0.8285
Li    Li487        0.2923    0.2902    0.9475
Li    Li488        0.4583    0.2173    0.8033
Li    Li489        0.3341    0.3009    0.8174
Li    Li490        0.4217    0.2112    0.9379
Li    Li491        0.4218    0.3411    0.0763
Li    Li492        0.3199    0.3648    0.1809
Li    Li493        0.4522    0.3339    0.1760
Li    Li494        0.2860    0.3574    0.0648
Li    Li495        0.3029    0.3882    0.1925
Li    Li496        0.4548    0.3132    0.0548
Li    Li497        0.3201    0.3868    0.0538
Li    Li498        0.4135    0.3110    0.1959
Li    Li499        0.3229    0.3633    0.4300
Li    Li500        0.2980    0.3895    0.4501
Li    Li501        0.4522    0.3172    0.3045
Li    Li502        0.4202    0.3371    0.5697
Li    Li503        0.3342    0.3488    0.7061
Li    Li504        0.4547    0.3316    0.6747
Li    Li505        0.2972    0.3609    0.5681
Li    Li506        0.2907    0.3938    0.7017
Li    Li507        0.4579    0.3139    0.5571
Li    Li508        0.4259    0.3203    0.6933
Li    Li509        0.4215    0.3389    0.8308
Li    Li510        0.4462    0.3385    0.9267
Li    Li511        0.2894    0.3640    0.8208
Li    Li512        0.4571    0.3154    0.7994
Li    Li513        0.3232    0.3812    0.7972
Li    Li514        0.4188    0.3099    0.9532
Li    Li515        0.4245    0.4397    0.0719
Li    Li516        0.4559    0.4341    0.1784
Li    Li517        0.2892    0.4552    0.0635
Li    Li518        0.4538    0.4301    0.0764
Li    Li519        0.4215    0.4125    0.1958
Li    Li520        0.3384    0.4603    0.4348
Li    Li521        0.4564    0.4395    0.4230
Li    Li522        0.4505    0.4194    0.2973
Li    Li523        0.4256    0.4164    0.4505
Li    Li524        0.4004    0.4434    0.5675
Li    Li525        0.3222    0.4553    0.6902
Li    Li526        0.2983    0.4870    0.7029
Li    Li527        0.2896    0.4554    0.8148
Li    Li528        0.2988    0.4883    0.9370
Li    Li529        0.2907    0.5641    0.0588
Li    Li530        0.2971    0.5867    0.1954
Li    Li531        0.3316    0.5879    0.0548
Li    Li532        0.4198    0.5357    0.3225
Li    Li533        0.2958    0.5609    0.3262
Li    Li534        0.4568    0.5135    0.3050
Li    Li535        0.4169    0.5116    0.4432
Li    Li536        0.4546    0.5384    0.6780
Li    Li537        0.2957    0.5672    0.5768
Li    Li538        0.3400    0.5941    0.5515
Li    Li539        0.4210    0.5104    0.6918
Li    Li540        0.3328    0.5609    0.9387
Li    Li541        0.4526    0.5484    0.9338
Li    Li542        0.2855    0.5569    0.8174
Li    Li543        0.3105    0.5776    0.9465
Li    Li544        0.4536    0.5141    0.8031
Li    Li545        0.4168    0.5088    0.9470
Li    Li546        0.3263    0.6563    0.1820
Li    Li547        0.4611    0.6383    0.1779
Li    Li548        0.2924    0.6570    0.0636
Li    Li549        0.2972    0.6904    0.1932
Li    Li550        0.4514    0.6076    0.0478
Li    Li551        0.3270    0.6903    0.0542
Li    Li552        0.4220    0.6109    0.2034
Li    Li553        0.4303    0.6440    0.3059
Li    Li554        0.3239    0.6740    0.4274
Li    Li555        0.2984    0.6825    0.4471
Li    Li556        0.4700    0.6064    0.3017
Li    Li557        0.4186    0.6167    0.4465
Li    Li558        0.4006    0.6434    0.5661
Li    Li559        0.3367    0.6615    0.6839
Li    Li560        0.4661    0.6084    0.5578
Li    Li561        0.3312    0.6821    0.5550
Li    Li562        0.4206    0.6414    0.8273
Li    Li563        0.3281    0.6688    0.9272
Li    Li564        0.2990    0.6853    0.9408
Li    Li565        0.4517    0.6107    0.7980
Li    Li566        0.4229    0.6138    0.9454
Li    Li567        0.4306    0.7339    0.0695
Li    Li568        0.3231    0.7576    0.1761
Li    Li569        0.2981    0.7877    0.1958
Li    Li570        0.4518    0.7121    0.0559
Li    Li571        0.3351    0.7841    0.0567
Li    Li572        0.4220    0.7056    0.1917
Li    Li573        0.4219    0.7366    0.3171
Li    Li574        0.3296    0.7589    0.4347
Li    Li575        0.4534    0.7407    0.4286
Li    Li576        0.3002    0.7593    0.3204
Li    Li577        0.4555    0.7108    0.3154
Li    Li578        0.3294    0.7802    0.3045
Li    Li579        0.4166    0.7347    0.5709
Li    Li580        0.4531    0.7379    0.6760
Li    Li581        0.2867    0.7665    0.5697
Li    Li582        0.4484    0.7215    0.5612
Li    Li583        0.3268    0.7866    0.5501
Li    Li584        0.4224    0.7162    0.6995
Li    Li585        0.3278    0.7625    0.9171
Li    Li586        0.2937    0.7612    0.8254
Li    Li587        0.2972    0.7866    0.9458
Li    Li588        0.3337    0.7931    0.8114
Li    Li589        0.4162    0.7147    0.9497
Li    Li590        0.4560    0.8392    0.1755
Li    Li591        0.2909    0.8615    0.0755
Li    Li592        0.3249    0.8929    0.0566
Li    Li593        0.2857    0.8566    0.3150
Li    Li594        0.3218    0.8915    0.3045
Li    Li595        0.4608    0.8089    0.5467
Li    Li596        0.4654    0.8542    0.9323
Li    Li597        0.4184    0.9408    0.0657
Li    Li598        0.3335    0.9621    0.1792
Li    Li599        0.4612    0.9337    0.1812
Li    Li600        0.2987    0.9613    0.0725
Li    Li601        0.2937    0.9970    0.1885
Li    Li602        0.4227    0.9116    0.2042
Li    Li603        0.4311    0.9424    0.3168
Li    Li604        0.2985    0.9591    0.3144
Li    Li605        0.4543    0.9112    0.3052
Li    Li606        0.3370    0.9829    0.3043
Li    Li607        0.3222    0.9590    0.6839
Li    Li608        0.4586    0.9417    0.6782
Li    Li609        0.4192    0.9132    0.6945
Li    Li610        0.3269    0.9675    0.9335
Li    Li611        0.4562    0.9334    0.9242
Li    Li612        0.2940    0.9732    0.9331
Li    Li613        0.4274    0.9085    0.9434
Li    Li614        0.5754    0.0683    0.1707
Li    Li615        0.7052    0.0365    0.1760
Li    Li616        0.5499    0.0868    0.2014
Li    Li617        0.6719    0.0175    0.2063
Li    Li618        0.6639    0.0279    0.5730
Li    Li619        0.5524    0.0682    0.5722
Li    Li620        0.6947    0.0089    0.5599
Li    Li621        0.6702    0.0176    0.6931
Li    Li622        0.6691    0.0384    0.8277
Li    Li623        0.5830    0.0848    0.8041
Li    Li624        0.6633    0.1365    0.0614
Li    Li625        0.5793    0.1600    0.1784
Li    Li626        0.5314    0.1585    0.0728
Li    Li627        0.5498    0.1825    0.2026
Li    Li628        0.7076    0.1137    0.0459
Li    Li629        0.5817    0.1892    0.0703
Li    Li630        0.5838    0.1572    0.4429
Li    Li631        0.7038    0.1409    0.4169
Li    Li632        0.5324    0.1561    0.3090
Li    Li633        0.5898    0.1824    0.9207
Li    Li634        0.7083    0.1311    0.9312
Li    Li635        0.6655    0.1134    0.9436
Li    Li636        0.6739    0.2324    0.0643
Li    Li637        0.5817    0.2634    0.1778
Li    Li638        0.6956    0.2456    0.1681
Li    Li639        0.5473    0.2602    0.0651
Li    Li640        0.5480    0.2897    0.2047
Li    Li641        0.5883    0.2818    0.0525
Li    Li642        0.5472    0.2860    0.3260
Li    Li643        0.5574    0.2804    0.4487
Li    Li644        0.6662    0.2105    0.4463
Li    Li645        0.6708    0.2412    0.5699
Li    Li646        0.5797    0.2621    0.6715
Li    Li647        0.6992    0.2374    0.6780
Li    Li648        0.5470    0.2622    0.5766
Li    Li649        0.5464    0.2875    0.6968
Li    Li650        0.5877    0.2873    0.5750
Li    Li651        0.6671    0.2132    0.6955
Li    Li652        0.6679    0.2368    0.8248
Li    Li653        0.5753    0.2664    0.9404
Li    Li654        0.5384    0.2636    0.8053
Li    Li655        0.5497    0.2909    0.9437
Li    Li656        0.7131    0.2134    0.8039
Li    Li657        0.6674    0.3416    0.0763
Li    Li658        0.5779    0.3653    0.1854
Li    Li659        0.5399    0.3907    0.0778
Li    Li660        0.5380    0.3925    0.1950
Li    Li661        0.6680    0.3340    0.3191
Li    Li662        0.5471    0.3650    0.3273
Li    Li663        0.7032    0.3132    0.2980
Li    Li664        0.5671    0.3853    0.3066
Li    Li665        0.6616    0.3407    0.5633
Li    Li666        0.7128    0.3116    0.5551
Li    Li667        0.5712    0.3586    0.9328
Li    Li668        0.7053    0.3334    0.9235
Li    Li669        0.6744    0.3080    0.9415
Li    Li670        0.6985    0.4302    0.1771
Li    Li671        0.5436    0.4631    0.3239
Li    Li672        0.5488    0.4795    0.4413
Li    Li673        0.6785    0.4373    0.5666
Li    Li674        0.5533    0.4667    0.5708
Li    Li675        0.5778    0.4794    0.5498
Li    Li676        0.5785    0.4553    0.9307
Li    Li677        0.6754    0.5366    0.0651
Li    Li678        0.5875    0.5678    0.1836
Li    Li679        0.6999    0.5320    0.1704
Li    Li680        0.5527    0.5664    0.0683
Li    Li681        0.5872    0.5936    0.0644
Li    Li682        0.6713    0.5107    0.1922
Li    Li683        0.5645    0.5771    0.4366
Li    Li684        0.7080    0.5427    0.4312
Li    Li685        0.5390    0.5640    0.3200
Li    Li686        0.5356    0.5957    0.4491
Li    Li687        0.6962    0.5127    0.3031
Li    Li688        0.5744    0.5887    0.3036
Li    Li689        0.6716    0.5128    0.4486
Li    Li690        0.6622    0.5166    0.6898
Li    Li691        0.5816    0.5739    0.9389
Li    Li692        0.5449    0.5879    0.9425
Li    Li693        0.6728    0.6412    0.0813
Li    Li694        0.6872    0.6286    0.1906
Li    Li695        0.5388    0.6904    0.2116
Li    Li696        0.6648    0.6064    0.1893
Li    Li697        0.6641    0.6381    0.3122
Li    Li698        0.5431    0.6799    0.2971
Li    Li699        0.7036    0.6161    0.3009
Li    Li700        0.5797    0.6830    0.3048
Li    Li701        0.7135    0.6432    0.6746
Li    Li702        0.5529    0.6649    0.5708
Li    Li703        0.5877    0.6896    0.5515
Li    Li704        0.6743    0.6131    0.6887
Li    Li705        0.6723    0.7355    0.0776
Li    Li706        0.7099    0.7436    0.1757
Li    Li707        0.7017    0.7121    0.0646
Li    Li708        0.6753    0.7445    0.3110
Li    Li709        0.5543    0.7653    0.4400
Li    Li710        0.6925    0.7259    0.4261
Li    Li711        0.5443    0.7640    0.3232
Li    Li712        0.5462    0.7855    0.4539
Li    Li713        0.7008    0.7127    0.3107
Li    Li714        0.5835    0.7896    0.3048
Li    Li715        0.6813    0.7042    0.4436
Li    Li716        0.6750    0.7407    0.5693
Li    Li717        0.5792    0.7571    0.6803
Li    Li718        0.5379    0.7567    0.5748
Li    Li719        0.7140    0.7139    0.5599
Li    Li720        0.5786    0.7641    0.9162
Li    Li721        0.5488    0.7640    0.8224
Li    Li722        0.5398    0.7832    0.9424
Li    Li723        0.5864    0.7865    0.8051
Li    Li724        0.6712    0.8377    0.0684
Li    Li725        0.5818    0.8633    0.1704
Li    Li726        0.5462    0.8582    0.0781
Li    Li727        0.5432    0.8781    0.1979
Li    Li728        0.5933    0.9064    0.0628
Li    Li729        0.6770    0.8306    0.5748
Li    Li730        0.5781    0.8588    0.6887
Li    Li731        0.6997    0.8339    0.6804
Li    Li732        0.5277    0.8946    0.7000
Li    Li733        0.7008    0.8130    0.5571
Li    Li734        0.5823    0.8656    0.9316
Li    Li735        0.7035    0.8402    0.9205
Li    Li736        0.5491    0.8662    0.8239
Li    Li737        0.5425    0.8901    0.9537
Li    Li738        0.7064    0.8060    0.8090
Li    Li739        0.6656    0.8139    0.9454
Li    Li740        0.5958    0.9606    0.1834
Li    Li741        0.5376    0.9850    0.1913
Li    Li742        0.5283    0.9477    0.3185
Li    Li743        0.6824    0.9347    0.5771
Li    Li744        0.5822    0.9642    0.6813
Li    Li745        0.7073    0.9319    0.6764
Li    Li746        0.5492    0.9911    0.6855
Li    Li747        0.5796    0.9817    0.5400
Li    Li748        0.5806    0.9611    0.9222
Li    Li749        0.7143    0.9361    0.9370
Li    Li750        0.5455    0.9885    0.9515
Li    Li751        0.5822    0.9892    0.7979
Li    Li752        0.6745    0.9105    0.9508
Li    Li753        0.9643    0.0307    0.1930
Li    Li754        0.7983    0.0623    0.0753
Li    Li755        0.9293    0.0365    0.3245
Li    Li756        0.9593    0.0470    0.4402
Li    Li757        0.7867    0.0680    0.3176
Li    Li758        0.9576    0.0186    0.3091
Li    Li759        0.8250    0.0915    0.3009
Li    Li760        0.9232    0.0279    0.5725
Li    Li761        0.7959    0.0866    0.6962
Li    Li762        0.8179    0.0613    0.9263
Li    Li763        0.7918    0.0586    0.8258
Li    Li764        0.7997    0.0854    0.9438
Li    Li765        0.8314    0.0853    0.8037
Li    Li766        0.9220    0.1248    0.0539
Li    Li767        0.8269    0.1533    0.1826
Li    Li768        0.9489    0.1398    0.1785
Li    Li769        0.7930    0.1619    0.0609
Li    Li770        0.9682    0.1073    0.0589
Li    Li771        0.8277    0.1873    0.0503
Li    Li772        0.9276    0.1171    0.1908
Li    Li773        0.8288    0.1604    0.4371
Li    Li774        0.7894    0.1633    0.3253
Li    Li775        0.8017    0.1808    0.4443
Li    Li776        0.9580    0.1182    0.3135
Li    Li777        0.9175    0.1064    0.4488
Li    Li778        0.9243    0.1393    0.5695
Li    Li779        0.9535    0.1151    0.5578
Li    Li780        0.8283    0.1893    0.5494
Li    Li781        0.9283    0.1378    0.8190
Li    Li782        0.8352    0.1627    0.9286
Li    Li783        0.7957    0.1992    0.9444
Li    Li784        0.8220    0.1894    0.8073
Li    Li785        0.9269    0.2406    0.0750
Li    Li786        0.8331    0.2576    0.1867
Li    Li787        0.9519    0.2333    0.1761
Li    Li788        0.8041    0.2507    0.0669
Li    Li789        0.9596    0.2129    0.0563
Li    Li790        0.8329    0.2831    0.0462
Li    Li791        0.9157    0.2137    0.1966
Li    Li792        0.9167    0.2404    0.3223
Li    Li793        0.8246    0.2594    0.4316
Li    Li794        0.7974    0.2865    0.4412
Li    Li795        0.9521    0.2116    0.2974
Li    Li796        0.8248    0.2842    0.3032
Li    Li797        0.8321    0.2631    0.6692
Li    Li798        0.9625    0.2389    0.6780
Li    Li799        0.7961    0.2602    0.5708
Li    Li800        0.7902    0.2857    0.6916
Li    Li801        0.9485    0.2126    0.5557
Li    Li802        0.8351    0.2929    0.5495
Li    Li803        0.9123    0.2043    0.6997
Li    Li804        0.9148    0.2368    0.8255
Li    Li805        0.8272    0.2692    0.9241
Li    Li806        0.9459    0.2325    0.9331
Li    Li807        0.8090    0.2754    0.9424
Li    Li808        0.9564    0.2094    0.8016
Li    Li809        0.8253    0.2850    0.7993
Li    Li810        0.9266    0.3393    0.0671
Li    Li811        0.8213    0.3548    0.1782
Li    Li812        0.9473    0.3428    0.1796
Li    Li813        0.9584    0.3022    0.0476
Li    Li814        0.9232    0.3149    0.2035
Li    Li815        0.9548    0.3127    0.3049
Li    Li816        0.9139    0.3362    0.5698
Li    Li817        0.9553    0.3357    0.6759
Li    Li818        0.9520    0.3033    0.5601
Li    Li819        0.9579    0.3415    0.9275
Li    Li820        0.7975    0.3908    0.9486
Li    Li821        0.9216    0.3166    0.9532
Li    Li822        0.9215    0.4425    0.0680
Li    Li823        0.7936    0.4645    0.0747
Li    Li824        0.8255    0.4823    0.0513
Li    Li825        0.9205    0.4351    0.3218
Li    Li826        0.8331    0.4593    0.4302
Li    Li827        0.9525    0.4332    0.4237
Li    Li828        0.7926    0.4609    0.3314
Li    Li829        0.7968    0.4872    0.4436
Li    Li830        0.9648    0.4085    0.3024
Li    Li831        0.9464    0.4397    0.9274
Li    Li832        0.9190    0.4170    0.9476
Li    Li833        0.9197    0.5388    0.3249
Li    Li834        0.8275    0.5584    0.4292
Li    Li835        0.8028    0.5657    0.3221
Li    Li836        0.7959    0.5913    0.4451
Li    Li837        0.9593    0.5187    0.3124
Li    Li838        0.8308    0.5823    0.3029
Li    Li839        0.9169    0.5121    0.4463
Li    Li840        0.9546    0.5150    0.5559
Li    Li841        0.8384    0.5822    0.9288
Li    Li842        0.9619    0.5450    0.9366
Li    Li843        0.9211    0.5193    0.9582
Li    Li844        0.8334    0.6602    0.1823
Li    Li845        0.9600    0.6423    0.1863
Li    Li846        0.9220    0.6252    0.2162
Li    Li847        0.8224    0.6525    0.4296
Li    Li848        0.9551    0.6411    0.4288
Li    Li849        0.7967    0.6879    0.4476
Li    Li850        0.9573    0.6153    0.3063
Li    Li851        0.8256    0.6861    0.3027
Li    Li852        0.9182    0.6115    0.4496
Li    Li853        0.7960    0.6772    0.6897
Li    Li854        0.9161    0.6421    0.8196
Li    Li855        0.9465    0.6397    0.9336
Li    Li856        0.7939    0.6597    0.8214
Li    Li857        0.9527    0.6075    0.8077
Li    Li858        0.8268    0.6892    0.7980
Li    Li859        0.9184    0.6064    0.9448
Li    Li860        0.8239    0.7671    0.1786
Li    Li861        0.9493    0.7403    0.1739
Li    Li862        0.7964    0.7631    0.0817
Li    Li863        0.8030    0.7844    0.1884
Li    Li864        0.9598    0.7347    0.0682
Li    Li865        0.9253    0.7179    0.1926
Li    Li866        0.7954    0.7679    0.3310
Li    Li867        0.9595    0.7130    0.3022
Li    Li868        0.8224    0.7939    0.3113
Li    Li869        0.9557    0.7404    0.6752
Li    Li870        0.7743    0.7989    0.6908
Li    Li871        0.8292    0.7865    0.5549
Li    Li872        0.9268    0.7145    0.7009
Li    Li873        0.9120    0.7407    0.8195
Li    Li874        0.8225    0.7692    0.9258
Li    Li875        0.9543    0.7328    0.9236
Li    Li876        0.9573    0.7140    0.8072
Li    Li877        0.9189    0.7122    0.9466
Li    Li878        0.9198    0.8368    0.0741
Li    Li879        0.8277    0.8710    0.1638
Li    Li880        0.9515    0.8391    0.1723
Li    Li881        0.7943    0.8581    0.0768
Li    Li882        0.9516    0.8105    0.0604
Li    Li883        0.9156    0.8132    0.1936
Li    Li884        0.9118    0.8432    0.3228
Li    Li885        0.8283    0.8618    0.4217
Li    Li886        0.9450    0.8354    0.4278
Li    Li887        0.9540    0.8116    0.3049
Li    Li888        0.9131    0.8116    0.4482
Li    Li889        0.9065    0.8372    0.5605
Li    Li890        0.7981    0.8748    0.6933
Li    Li891        0.9509    0.8133    0.5556
Li    Li892        0.9247    0.8109    0.6955
Li    Li893        0.8322    0.8685    0.9256
Li    Li894        0.7975    0.8922    0.9437
Li    Li895        0.9656    0.8044    0.8056
Li    Li896        0.8218    0.9762    0.6893
Li    Li897        0.9248    0.9067    0.6923
Li    Li898        0.2389    0.0154    0.0616
Li    Li899        0.1199    0.0304    0.3227
Li    Li900        0.2535    0.0123    0.2980
Li    Li901        0.1204    0.0845    0.3013
Li    Li902        0.1359    0.0040    0.6812
Li    Li903        0.1176    0.0669    0.9305
Li    Li904        0.1302    0.0265    0.9402
Li    Li905        0.0076    0.1650    0.0745
Li    Li906        0.9968    0.1912    0.4252
Li    Li907        0.2364    0.1095    0.3089
Li    Li908        0.1142    0.1968    0.3143
Li    Li909        0.1452    0.1445    0.5631
Li    Li910        0.2298    0.1505    0.6868
Li    Li911        0.0109    0.1625    0.5781
Li    Li912        0.1232    0.1320    0.8191
Li    Li913        0.2605    0.2039    0.0525
Li    Li914        0.1188    0.2829    0.0491
Li    Li915        0.1168    0.2682    0.4428
Li    Li916        0.2527    0.2438    0.4311
Li    Li917        0.0023    0.2873    0.4308
Li    Li918        0.1169    0.2924    0.3163
Li    Li919        0.1217    0.2640    0.6722
Li    Li920        0.2421    0.2339    0.6720
Li    Li921        0.2296    0.2038    0.5625
Li    Li922        0.1237    0.2857    0.5741
Li    Li923        0.1332    0.2150    0.6893
Li    Li924        0.1172    0.2400    0.8171
Li    Li925        0.1206    0.2630    0.9330
Li    Li926        0.1031    0.2884    0.8082
Li    Li927        0.1449    0.2008    0.9341
Li    Li928        0.1323    0.3357    0.0648
Li    Li929        0.1128    0.3686    0.1854
Li    Li930        0.2393    0.3273    0.0502
Li    Li931        0.1318    0.3378    0.3267
Li    Li932        0.1189    0.3636    0.4195
Li    Li933        0.2469    0.3426    0.4270
Li    Li934        0.0123    0.3639    0.3213
Li    Li935        0.0076    0.3907    0.4350
Li    Li936        0.2419    0.3079    0.3100
Li    Li937        0.1130    0.3881    0.3220
Li    Li938        0.2397    0.3237    0.5548
Li    Li939        0.1056    0.3310    0.8209
Li    Li940        0.1229    0.3696    0.9261
Li    Li941        0.0147    0.3624    0.8229
Li    Li942        0.0169    0.3924    0.9415
Li    Li943        0.1435    0.3092    0.9469
Li    Li944        0.2740    0.4348    0.1567
Li    Li945        0.2379    0.4169    0.0563
Li    Li946        0.1068    0.4208    0.1794
Li    Li947        0.1176    0.4604    0.4375
Li    Li948        0.0029    0.4891    0.4489
Li    Li949        0.1373    0.4143    0.4558
Li    Li950        0.1200    0.4335    0.5715
Li    Li951        0.0195    0.4580    0.5672
Li    Li952        0.2394    0.4115    0.5748
Li    Li953        0.1087    0.4918    0.5743
Li    Li954        0.1169    0.4282    0.8225
Li    Li955        0.2460    0.4428    0.9363
Li    Li956        0.0170    0.4995    0.9437
Li    Li957        0.1372    0.4118    0.9437
Li    Li958        0.1389    0.5321    0.3271
Li    Li959        0.1161    0.5669    0.4234
Li    Li960        0.2466    0.5460    0.4318
Li    Li961        0.0099    0.5610    0.3229
Li    Li962        0.1480    0.5043    0.4341
Li    Li963        0.2385    0.5436    0.6784
Li    Li964        0.1212    0.5896    0.5413
Li    Li965        0.1170    0.5664    0.9279
Li    Li966        0.2448    0.5327    0.9298
Li    Li967        0.9894    0.5889    0.9401
Li    Li968        0.2498    0.5075    0.7945
Li    Li969        0.1321    0.6414    0.0709
Li    Li970        0.1255    0.6555    0.1834
Li    Li971        0.2436    0.6331    0.1890
Li    Li972        0.2377    0.6199    0.0678
Li    Li973        0.0134    0.6657    0.3271
Li    Li974        0.2588    0.6138    0.2951
Li    Li975        0.1176    0.6129    0.4424
Li    Li976        0.0115    0.6593    0.8099
Li    Li977        0.0057    0.6897    0.9493
Li    Li978        0.1339    0.6088    0.9432
Li    Li979        0.0970    0.7589    0.1765
Li    Li980        0.0072    0.7856    0.2013
Li    Li981        0.1372    0.7091    0.1910
Li    Li982        0.2730    0.7296    0.4027
Li    Li983        0.1219    0.7200    0.4376
Li    Li984        0.1407    0.7424    0.5568
Li    Li985        0.1181    0.7585    0.6775
Li    Li986        0.0020    0.7819    0.6862
Li    Li987        0.2299    0.7301    0.5490
Li    Li988        0.2341    0.7430    0.9396
Li    Li989        0.1353    0.7896    0.8141
Li    Li990        0.1369    0.7222    0.9555
Li    Li991        0.1379    0.8411    0.0538
Li    Li992        0.0225    0.8546    0.0674
Li    Li993        0.1189    0.8994    0.0708
Li    Li994        0.0049    0.8625    0.3138
Li    Li995        0.2483    0.8141    0.3027
Li    Li996        0.0073    0.8576    0.5631
Li    Li997        0.1132    0.8517    0.9413
Li    Li998        0.0091    0.8655    0.8187
Li    Li999        0.2437    0.8067    0.8105
Li    Li1000        0.1198    0.8863    0.8118
Li    Li1001        0.1281    0.9325    0.0562
Li    Li1002        0.2465    0.9339    0.1879
Li    Li1003        0.9902    0.9879    0.1904
Li    Li1004        0.1331    0.9174    0.3122
Li    Li1005        0.9854    0.9921    0.4457
Li    Li1006        0.1128    0.9908    0.3111
Li    Li1007        0.1226    0.9696    0.6757
Li    Li1008        0.0118    0.9667    0.5828
Li    Li1009        0.1487    0.9524    0.8155
Li    Li1010        0.2404    0.9343    0.9260
Li    Li1011        0.4722    0.0496    0.1965
Li    Li1012        0.3826    0.0413    0.3061
Li    Li1013        0.2584    0.0676    0.3042
Li    Li1014        0.4915    0.0119    0.3028
Li    Li1015        0.4938    0.0156    0.5602
Li    Li1016        0.4943    0.0187    0.7987
Li    Li1017        0.3632    0.0661    0.7802
Li    Li1018        0.3753    0.0178    0.9464
Li    Li1019        0.4911    0.1350    0.1772
Li    Li1020        0.2589    0.1625    0.0611
Li    Li1021        0.2607    0.1836    0.2066
Li    Li1022        0.3817    0.1106    0.1913
Li    Li1023        0.3636    0.1891    0.3128
Li    Li1024        0.2600    0.1583    0.8130
Li    Li1025        0.4948    0.1174    0.8113
Li    Li1026        0.3601    0.1851    0.7819
Li    Li1027        0.4882    0.2213    0.1718
Li    Li1028        0.2735    0.2558    0.0675
Li    Li1029        0.2486    0.2863    0.1960
Li    Li1030        0.3760    0.2090    0.2010
Li    Li1031        0.4945    0.2210    0.2987
Li    Li1032        0.3792    0.2019    0.6956
Li    Li1033        0.3624    0.2910    0.8131
Li    Li1034        0.3790    0.2132    0.9474
Li    Li1035        0.3608    0.3612    0.1914
Li    Li1036        0.4979    0.3249    0.1885
Li    Li1037        0.2532    0.3934    0.1906
Li    Li1038        0.4802    0.3020    0.0599
Li    Li1039        0.2596    0.3915    0.4380
Li    Li1040        0.5014    0.3228    0.3052
Li    Li1041        0.2536    0.3963    0.7044
Li    Li1042        0.4903    0.3155    0.5615
Li    Li1043        0.4936    0.3327    0.9278
Li    Li1044        0.3658    0.3930    0.8045
Li    Li1045        0.3987    0.3077    0.9339
Li    Li1046        0.3818    0.4312    0.0775
Li    Li1047        0.4890    0.4094    0.0545
Li    Li1048        0.4824    0.3979    0.3152
Li    Li1049        0.3695    0.4204    0.4601
Li    Li1050        0.2352    0.4767    0.6871
Li    Li1051        0.3544    0.4213    0.7010
Li    Li1052        0.3510    0.4264    0.8109
Li    Li1053        0.2640    0.4612    0.8164
Li    Li1054        0.2533    0.5923    0.1959
Li    Li1055        0.3764    0.5761    0.0500
Li    Li1056        0.4899    0.5113    0.2900
Li    Li1057        0.3742    0.5136    0.4478
Li    Li1058        0.4909    0.5391    0.6845
Li    Li1059        0.2671    0.5621    0.5676
Li    Li1060        0.4009    0.5429    0.8208
Li    Li1061        0.3566    0.5554    0.9304
Li    Li1062        0.3745    0.6655    0.1744
Li    Li1063        0.5200    0.6367    0.1894
Li    Li1064        0.4825    0.6080    0.0529
Li    Li1065        0.3743    0.6853    0.0376
Li    Li1066        0.3720    0.6656    0.4265
Li    Li1067        0.2614    0.6805    0.4706
Li    Li1068        0.3636    0.6386    0.8118
Li    Li1069        0.3676    0.6615    0.9265
Li    Li1070        0.3949    0.6034    0.9369
Li    Li1071        0.3837    0.7357    0.0624
Li    Li1072        0.2613    0.7813    0.1840
Li    Li1073        0.4782    0.7095    0.0416
Li    Li1074        0.3840    0.7920    0.0586
Li    Li1075        0.3842    0.7389    0.3243
Li    Li1076        0.3539    0.7487    0.4396
Li    Li1077        0.2680    0.7520    0.3161
Li    Li1078        0.4957    0.7111    0.3051
Li    Li1079        0.3854    0.7349    0.5600
Li    Li1080        0.4911    0.7416    0.6858
Li    Li1081        0.3650    0.7901    0.8079
Li    Li1082        0.3734    0.7329    0.9492
Li    Li1083        0.4809    0.8458    0.1825
Li    Li1084        0.2552    0.8573    0.0732
Li    Li1085        0.3665    0.8893    0.0570
Li    Li1086        0.2524    0.8553    0.3167
Li    Li1087        0.4866    0.8385    0.6892
Li    Li1088        0.4941    0.8400    0.9346
Li    Li1089        0.3741    0.9472    0.0746
Li    Li1090        0.3894    0.9122    0.1916
Li    Li1091        0.2530    0.9746    0.3087
Li    Li1092        0.4897    0.9044    0.3131
Li    Li1093        0.4115    0.9850    0.2757
Li    Li1094        0.3837    0.9274    0.6809
Li    Li1095        0.3938    0.9743    0.9353
Li    Li1096        0.2592    0.9844    0.9381
Li    Li1097        0.5058    0.9203    0.8233
Li    Li1098        0.6221    0.0569    0.1831
Li    Li1099        0.7328    0.0370    0.1776
Li    Li1100        0.5124    0.1027    0.1958
Li    Li1101        0.6334    0.0159    0.1974
Li    Li1102        0.6193    0.1614    0.1736
Li    Li1103        0.5077    0.1821    0.1891
Li    Li1104        0.7552    0.1071    0.0514
Li    Li1105        0.6190    0.1838    0.0655
Li    Li1106        0.6074    0.1542    0.4318
Li    Li1107        0.7453    0.1458    0.4486
Li    Li1108        0.6226    0.1604    0.9239
Li    Li1109        0.7524    0.1371    0.9542
Li    Li1110        0.6133    0.2597    0.1962
Li    Li1111        0.6144    0.2912    0.0762
Li    Li1112        0.7400    0.2342    0.4238
Li    Li1113        0.5090    0.2923    0.4441
Li    Li1114        0.6386    0.2169    0.4361
Li    Li1115        0.7322    0.2476    0.6891
Li    Li1116        0.5049    0.2676    0.5897
Li    Li1117        0.6158    0.2907    0.5581
Li    Li1118        0.6351    0.2207    0.6941
Li    Li1119        0.6222    0.2340    0.8346
Li    Li1120        0.6169    0.2612    0.9313
Li    Li1121        0.7419    0.2179    0.8021
Li    Li1122        0.6258    0.3339    0.0662
Li    Li1123        0.5024    0.3894    0.1872
Li    Li1124        0.7370    0.2981    0.0575
Li    Li1125        0.7408    0.3175    0.2896
Li    Li1126        0.6312    0.3324    0.5894
Li    Li1127        0.6385    0.3094    0.9432
Li    Li1128        0.5098    0.4856    0.4264
Li    Li1129        0.5088    0.4676    0.5703
Li    Li1130        0.6161    0.4731    0.9102
Li    Li1131        0.5092    0.5679    0.0474
Li    Li1132        0.6280    0.5039    0.1955
Li    Li1133        0.5092    0.5681    0.3206
Li    Li1134        0.7540    0.5114    0.3075
Li    Li1135        0.6438    0.5082    0.4433
Li    Li1136        0.4804    0.5583    0.8299
Li    Li1137        0.6326    0.5146    0.9404
Li    Li1138        0.6366    0.6242    0.0715
Li    Li1139        0.6325    0.6440    0.3192
Li    Li1140        0.6265    0.6836    0.3174
Li    Li1141        0.7351    0.6471    0.6940
Li    Li1142        0.5231    0.6550    0.5610
Li    Li1143        0.6197    0.6993    0.5482
Li    Li1144        0.6299    0.7398    0.0755
Li    Li1145        0.7451    0.7140    0.0484
Li    Li1146        0.5012    0.7544    0.3213
Li    Li1147        0.6250    0.7735    0.3120
Li    Li1148        0.6365    0.7151    0.4455
Li    Li1149        0.6152    0.7593    0.6866
Li    Li1150        0.7407    0.8102    0.0730
Li    Li1151        0.6139    0.8898    0.0667
Li    Li1152        0.6239    0.8408    0.8200
Li    Li1153        0.5135    0.8591    0.8204
Li    Li1154        0.7416    0.8105    0.8052
Li    Li1155        0.6208    0.8879    0.8013
Li    Li1156        0.6128    0.8137    0.9386
Li    Li1157        0.6364    0.9657    0.1901
Li    Li1158        0.6230    0.9926    0.0337
Li    Li1159        0.6281    0.9279    0.5486
Li    Li1160        0.7470    0.9335    0.6641
Li    Li1161        0.5099    0.9919    0.6834
Li    Li1162        0.6180    0.9814    0.5577
Li    Li1163        0.6156    0.9595    0.9375
Li    Li1164        0.5071    0.9843    0.9332
Li    Li1165        0.6042    0.9777    0.8153
Li    Li1166        0.6313    0.9103    0.9558
Li    Li1167        0.9915    0.0367    0.1868
Li    Li1168        0.8836    0.0357    0.3095
Li    Li1169        0.0044    0.0376    0.4218
Li    Li1170        0.8578    0.0853    0.3078
Li    Li1171        0.7560    0.0921    0.6872
Li    Li1172        0.8476    0.0514    0.9362
Li    Li1173        0.7382    0.0627    0.8235
Li    Li1174        0.8625    0.1557    0.0486
Li    Li1175        0.8683    0.1670    0.1634
Li    Li1176        0.7620    0.1715    0.0597
Li    Li1177        0.8691    0.1901    0.0658
Li    Li1178        0.8709    0.1569    0.3057
Li    Li1179        0.7514    0.1728    0.3137
Li    Li1180        0.7586    0.1850    0.4360
Li    Li1181        0.8902    0.1851    0.5620
Li    Li1182        0.8636    0.1633    0.9313
Li    Li1183        0.8641    0.2599    0.1770
Li    Li1184        0.8810    0.2170    0.1915
Li    Li1185        0.8699    0.2284    0.3075
Li    Li1186        0.8650    0.2563    0.4463
Li    Li1187        0.8754    0.2673    0.6787
Li    Li1188        0.9929    0.2281    0.6833
Li    Li1189        0.7541    0.2652    0.5801
Li    Li1190        0.9920    0.2133    0.5511
Li    Li1191        0.8708    0.2818    0.5380
Li    Li1192        0.8729    0.2582    0.9310
Li    Li1193        0.9887    0.3153    0.0567
Li    Li1194        0.8707    0.3060    0.1977
Li    Li1195        0.8948    0.3515    0.2958
Li    Li1196        0.0090    0.3065    0.3038
Li    Li1197        0.7606    0.3780    0.9615
Li    Li1198        0.8944    0.4611    0.4193
Li    Li1199        0.9929    0.4338    0.9074
Li    Li1200        0.7532    0.5645    0.0575
Li    Li1201        0.8840    0.5345    0.3058
Li    Li1202        0.8752    0.5060    0.4342
Li    Li1203        0.8717    0.5633    0.9413
Li    Li1204        0.8759    0.6134    0.1990
Li    Li1205        0.8790    0.6134    0.4470
Li    Li1206        0.9876    0.6304    0.7018
Li    Li1207        0.8837    0.6344    0.8154
Li    Li1208        0.7679    0.6804    0.8246
Li    Li1209        0.8659    0.6954    0.8289
Li    Li1210        0.8846    0.6138    0.9406
Li    Li1211        0.8526    0.7577    0.1876
Li    Li1212        0.7651    0.7724    0.1078
Li    Li1213        0.7606    0.7916    0.1818
Li    Li1214        0.9991    0.7076    0.0600
Li    Li1215        0.8767    0.7159    0.1801
Li    Li1216        0.8831    0.7385    0.3133
Li    Li1217        0.7449    0.7670    0.3233
Li    Li1218        0.8670    0.7890    0.3108
Li    Li1219        0.8838    0.7554    0.9177
Li    Li1220        0.9937    0.7349    0.9192
Li    Li1221        0.7292    0.7885    0.9440
Li    Li1222        0.0005    0.8156    0.0525
Li    Li1223        0.8832    0.8183    0.1854
Li    Li1224        0.8744    0.8680    0.4317
Li    Li1225        0.9891    0.8380    0.4334
Li    Li1226        0.9951    0.8158    0.2980
Li    Li1227        0.8834    0.8407    0.5671
Li    Li1228        0.8669    0.8572    0.6912
Li    Li1229        0.7353    0.8691    0.5918
Li    Li1230        0.7616    0.8887    0.6981
Li    Li1231        0.8808    0.8142    0.7011
Li    Li1232        0.8603    0.8533    0.9355
Li    Li1233        0.7555    0.8823    0.9373
Li    Li1234        0.9951    0.8218    0.8135
Li    Li1235        0.8709    0.9649    0.4183
Li    Li1236        0.8584    0.9549    0.6895
Li    Li1237        0.9777    0.9453    0.6948
Li    Li1238        0.9926    0.9129    0.5496
Li    Li1239        0.8861    0.9154    0.6916
Li    Li1240        0.2018    0.0521    0.2323
Li    Li1241        0.2127    0.9987    0.1156
Li    Li1242        0.1705    0.0443    0.2668
Li    Li1243        0.0295    0.0905    0.3733
Li    Li1244        0.0662    0.0853    0.3693
Li    Li1245        0.1946    0.0178    0.8665
Li    Li1246        0.1732    0.0174    0.8887
Li    Li1247        0.0904    0.0977    0.8633
Li    Li1248        0.2311    0.1457    0.2390
Li    Li1249        0.0903    0.1401    0.4777
Li    Li1250        0.0458    0.1558    0.2709
Li    Li1251        0.1625    0.0917    0.3988
Li    Li1252        0.0814    0.2077    0.3753
Li    Li1253        0.0371    0.1510    0.5034
Li    Li1254        0.2168    0.1490    0.7312
Li    Li1255        0.2058    0.1148    0.6087
Li    Li1256        0.0898    0.1446    0.9812
Li    Li1257        0.2116    0.1632    0.9890
Li    Li1258        0.1719    0.2444    0.0151
Li    Li1259        0.2139    0.2039    0.3600
Li    Li1260        0.1659    0.2477    0.5164
Li    Li1261        0.0401    0.2423    0.5080
Li    Li1262        0.2085    0.2541    0.7286
Li    Li1263        0.0300    0.2910    0.6283
Li    Li1264        0.1698    0.2073    0.6326
Li    Li1265        0.0806    0.2989    0.6206
Li    Li1266        0.0835    0.2532    0.9882
Li    Li1267        0.1989    0.2052    0.8685
Li    Li1268        0.1780    0.2017    0.8961
Li    Li1269        0.0939    0.3535    0.4920
Li    Li1270        0.1659    0.3473    0.2719
Li    Li1271        0.0400    0.3605    0.2654
Li    Li1272        0.1939    0.3533    0.4838
Li    Li1273        0.2046    0.3045    0.3759
Li    Li1274        0.0409    0.3938    0.3871
Li    Li1275        0.1651    0.2995    0.3939
Li    Li1276        0.0490    0.3611    0.4921
Li    Li1277        0.2020    0.2964    0.6107
Li    Li1278        0.0789    0.3537    0.9876
Li    Li1279        0.1702    0.3578    0.7567
Li    Li1280        0.2095    0.3447    0.9820
Li    Li1281        0.2069    0.3054    0.8633
Li    Li1282        0.0789    0.3880    0.8611
Li    Li1283        0.2089    0.3999    0.1235
Li    Li1284        0.0335    0.4890    0.1320
Li    Li1285        0.1724    0.4458    0.2549
Li    Li1286        0.0329    0.4499    0.2632
Li    Li1287        0.1941    0.3976    0.3688
Li    Li1288        0.1680    0.4121    0.3953
Li    Li1289        0.0924    0.5064    0.3755
Li    Li1290        0.0544    0.4623    0.4947
Li    Li1291        0.2195    0.4470    0.7320
Li    Li1292        0.1613    0.4073    0.6308
Li    Li1293        0.0773    0.4492    0.9863
Li    Li1294        0.0300    0.4455    0.7627
Li    Li1295        0.2036    0.4398    0.9873
Li    Li1296        0.2057    0.3979    0.8588
Li    Li1297        0.0764    0.4982    0.8615
Li    Li1298        0.1701    0.5441    0.2719
Li    Li1299        0.0453    0.5608    0.2704
Li    Li1300        0.0781    0.6060    0.3617
Li    Li1301        0.0410    0.5457    0.5119
Li    Li1302        0.2130    0.4987    0.6355
Li    Li1303        0.1791    0.5039    0.6484
Li    Li1304        0.1686    0.5571    0.7532
Li    Li1305        0.2195    0.5017    0.8758
Li    Li1306        0.0414    0.5880    0.8958
Li    Li1307        0.0736    0.6524    0.2429
Li    Li1308        0.1665    0.6318    0.0222
Li    Li1309        0.0418    0.6529    0.0165
Li    Li1310        0.2148    0.6005    0.1196
Li    Li1311        0.1675    0.6067    0.1332
Li    Li1312        0.0812    0.6639    0.4814
Li    Li1313        0.2095    0.6363    0.4881
Li    Li1314        0.2097    0.5940    0.3548
Li    Li1315        0.1644    0.6164    0.3917
Li    Li1316        0.1603    0.6473    0.5067
Li    Li1317        0.0386    0.7007    0.6432
Li    Li1318        0.0813    0.6507    0.9980
Li    Li1319        0.1967    0.6468    0.9968
Li    Li1320        0.0441    0.7073    0.8887
Li    Li1321        0.1685    0.7497    0.0110
Li    Li1322        0.2140    0.7402    0.2361
Li    Li1323        0.0830    0.7932    0.1131
Li    Li1324        0.0563    0.7512    0.2643
Li    Li1325        0.2126    0.6965    0.3760
Li    Li1326        0.0747    0.7497    0.7356
Li    Li1327        0.1654    0.7526    0.5346
Li    Li1328        0.0442    0.7898    0.6331
Li    Li1329        0.0787    0.8026    0.8600
Li    Li1330        0.0571    0.8893    0.1211
Li    Li1331        0.0841    0.8842    0.1023
Li    Li1332        0.0523    0.8647    0.2659
Li    Li1333        0.0791    0.8530    0.7365
Li    Li1334        0.0483    0.8404    0.7617
Li    Li1335        0.0406    0.8904    0.8890
Li    Li1336        0.1657    0.8984    0.1205
Li    Li1337        0.2122    0.8907    0.3706
Li    Li1338        0.1675    0.9125    0.3930
Li    Li1339        0.0750    0.0023    0.6102
Li    Li1340        0.0877    0.9436    0.9866
Li    Li1341        0.0646    0.9758    0.7539
Li    Li1342        0.2056    0.9514    0.0004
Li    Li1343        0.2061    0.9023    0.8588
Li    Li1344        0.1797    0.9185    0.8834
Li    Li1345        0.3251    0.0644    0.2298
Li    Li1346        0.4171    0.0368    0.2638
Li    Li1347        0.4229    0.0124    0.9044
Li    Li1348        0.4163    0.1467    0.0061
Li    Li1349        0.2899    0.1464    0.0182
Li    Li1350        0.2981    0.1899    0.1474
Li    Li1351        0.3320    0.2009    0.1123
Li    Li1352        0.3353    0.1441    0.7362
Li    Li1353        0.4184    0.1540    0.7673
Li    Li1354        0.4575    0.1528    0.9805
Li    Li1355        0.2961    0.1978    0.9009
Li    Li1356        0.4194    0.1137    0.8891
Li    Li1357        0.3238    0.2050    0.8624
Li    Li1358        0.4226    0.2550    0.0123
Li    Li1359        0.2944    0.2619    0.9823
Li    Li1360        0.4697    0.1956    0.1231
Li    Li1361        0.4234    0.1992    0.1390
Li    Li1362        0.3314    0.2984    0.1157
Li    Li1363        0.4151    0.2594    0.2610
Li    Li1364        0.2968    0.2991    0.3807
Li    Li1365        0.4579    0.2380    0.7228
Li    Li1366        0.3299    0.2571    0.9773
Li    Li1367        0.2900    0.2552    0.7615
Li    Li1368        0.4260    0.2044    0.8911
Li    Li1369        0.3302    0.2944    0.8564
Li    Li1370        0.3374    0.3535    0.2402
Li    Li1371        0.4189    0.3463    0.0158
Li    Li1372        0.2902    0.3555    0.0154
Li    Li1373        0.4321    0.3379    0.2471
Li    Li1374        0.4599    0.3085    0.1197
Li    Li1375        0.2932    0.3894    0.1426
Li    Li1376        0.4239    0.3123    0.1444
Li    Li1377        0.3353    0.3976    0.1202
Li    Li1378        0.4186    0.3424    0.2688
Li    Li1379        0.4532    0.3036    0.3603
Li    Li1380        0.4252    0.3460    0.5070
Li    Li1381        0.2916    0.3591    0.5170
Li    Li1382        0.4578    0.3503    0.7337
Li    Li1383        0.4529    0.2908    0.6048
Li    Li1384        0.2878    0.3979    0.6511
Li    Li1385        0.4171    0.2951    0.8926
Li    Li1386        0.2959    0.4570    0.0039
Li    Li1387        0.4569    0.4402    0.2288
Li    Li1388        0.4565    0.4145    0.1144
Li    Li1389        0.4211    0.4370    0.2666
Li    Li1390        0.4573    0.4448    0.4876
Li    Li1391        0.2697    0.4865    0.3785
Li    Li1392        0.3317    0.4614    0.7437
Li    Li1393        0.2930    0.5035    0.6418
Li    Li1394        0.3287    0.4635    0.9834
Li    Li1395        0.4182    0.4968    0.3914
Li    Li1396        0.2891    0.5605    0.5115
Li    Li1397        0.3338    0.5575    0.9842
Li    Li1398        0.4193    0.5561    0.7754
Li    Li1399        0.3027    0.5568    0.7651
Li    Li1400        0.2937    0.5930    0.8927
Li    Li1401        0.3324    0.6612    0.2359
Li    Li1402        0.4710    0.6439    0.2516
Li    Li1403        0.4547    0.6137    0.1230
Li    Li1404        0.2859    0.7001    0.1226
Li    Li1405        0.3037    0.6922    0.1050
Li    Li1406        0.3258    0.6545    0.4907
Li    Li1407        0.4523    0.6545    0.4797
Li    Li1408        0.2999    0.7021    0.3900
Li    Li1409        0.3326    0.6478    0.7393
Li    Li1410        0.2895    0.6508    0.5231
Li    Li1411        0.2985    0.6442    0.7672
Li    Li1412        0.4480    0.6458    0.9956
Li    Li1413        0.4547    0.6024    0.8542
Li    Li1414        0.3411    0.7054    0.8548
Li    Li1415        0.3193    0.7583    0.2421
Li    Li1416        0.4200    0.7540    0.0156
Li    Li1417        0.4188    0.7491    0.2555
Li    Li1418        0.2950    0.7548    0.2741
Li    Li1419        0.2920    0.7620    0.5255
Li    Li1420        0.4525    0.7308    0.7347
Li    Li1421        0.4553    0.7039    0.6113
Li    Li1422        0.4609    0.7554    0.9845
Li    Li1423        0.3301    0.7838    0.8636
Li    Li1424        0.2926    0.8548    0.0167
Li    Li1425        0.4548    0.8315    0.2238
Li    Li1426        0.4194    0.8001    0.1425
Li    Li1427        0.4225    0.8430    0.2621
Li    Li1428        0.4537    0.8050    0.6089
Li    Li1429        0.4593    0.8013    0.8699
Li    Li1430        0.4158    0.8011    0.8888
Li    Li1431        0.3370    0.9524    0.2244
Li    Li1432        0.3986    0.9545    0.9944
Li    Li1433        0.2871    0.9436    0.0038
Li    Li1434        0.4536    0.8990    0.1093
Li    Li1435        0.4143    0.9531    0.2562
Li    Li1436        0.4582    0.9161    0.3521
Li    Li1437        0.3329    0.9572    0.7303
Li    Li1438        0.4592    0.9524    0.7295
Li    Li1439        0.2924    0.9490    0.7580
Li    Li1440        0.4593    0.9590    0.9806
Li    Li1441        0.2932    0.9887    0.9003
Li    Li1442        0.7007    0.0566    0.2337
Li    Li1443        0.6923    0.0153    0.1198
Li    Li1444        0.5480    0.0873    0.1398
Li    Li1445        0.6671    0.0422    0.5215
Li    Li1446        0.5462    0.0445    0.5216
Li    Li1447        0.6903    0.0367    0.7519
Li    Li1448        0.7135    0.0076    0.6098
Li    Li1449        0.6661    0.0370    0.7715
Li    Li1450        0.5476    0.0578    0.7683
Li    Li1451        0.5833    0.1059    0.8504
Li    Li1452        0.5460    0.1542    0.0160
Li    Li1453        0.6641    0.1074    0.1405
Li    Li1454        0.5288    0.1462    0.2689
Li    Li1455        0.7123    0.1506    0.4680
Li    Li1456        0.5799    0.1884    0.3580
Li    Li1457        0.7097    0.1496    0.9808
Li    Li1458        0.5960    0.1952    0.8729
Li    Li1459        0.6661    0.2109    0.1456
Li    Li1460        0.5349    0.2584    0.2719
Li    Li1461        0.6970    0.2342    0.4853
Li    Li1462        0.7174    0.1932    0.3483
Li    Li1463        0.5864    0.3005    0.3553
Li    Li1464        0.6692    0.2537    0.5176
Li    Li1465        0.5792    0.2984    0.6078
Li    Li1466        0.7077    0.1960    0.8648
Li    Li1467        0.5473    0.2997    0.8890
Li    Li1468        0.5402    0.3510    0.0116
Li    Li1469        0.7067    0.3048    0.1111
Li    Li1470        0.5726    0.3886    0.1155
Li    Li1471        0.5385    0.3445    0.2751
Li    Li1472        0.6722    0.3403    0.5151
Li    Li1473        0.7000    0.3068    0.6239
Li    Li1474        0.7023    0.3402    0.9820
Li    Li1475        0.6720    0.3117    0.8971
Li    Li1476        0.6696    0.4097    0.1472
Li    Li1477        0.5434    0.4934    0.3924
Li    Li1478        0.5753    0.4880    0.3524
Li    Li1479        0.5808    0.4966    0.6143
Li    Li1480        0.5912    0.5587    0.2393
Li    Li1481        0.7028    0.5519    0.2333
Li    Li1482        0.7069    0.5081    0.1076
Li    Li1483        0.6671    0.5132    0.1406
Li    Li1484        0.5518    0.5974    0.3822
Li    Li1485        0.6696    0.5011    0.3875
Li    Li1486        0.5868    0.6037    0.3506
Li    Li1487        0.5930    0.5548    0.9940
Li    Li1488        0.5481    0.6046    0.8952
Li    Li1489        0.5756    0.6530    0.2435
Li    Li1490        0.6592    0.5939    0.1298
Li    Li1491        0.5419    0.6506    0.2684
Li    Li1492        0.7128    0.6463    0.7437
Li    Li1493        0.6694    0.6100    0.6430
Li    Li1494        0.5812    0.7043    0.6085
Li    Li1495        0.5441    0.7439    0.0108
Li    Li1496        0.6640    0.7458    0.2526
Li    Li1497        0.5390    0.7992    0.3899
Li    Li1498        0.5859    0.7954    0.3495
Li    Li1499        0.5494    0.7587    0.5220
Li    Li1500        0.5427    0.7918    0.6471
Li    Li1501        0.6668    0.8469    0.0144
Li    Li1502        0.7092    0.8028    0.0928
Li    Li1503        0.5490    0.8989    0.1368
Li    Li1504        0.6750    0.8047    0.1314
Li    Li1505        0.5838    0.8505    0.7470
Li    Li1506        0.7000    0.8385    0.7338
Li    Li1507        0.5315    0.9050    0.6517
Li    Li1508        0.5826    0.8511    0.9723
Li    Li1509        0.5469    0.8456    0.7683
Li    Li1510        0.7054    0.8554    0.9774
Li    Li1511        0.7235    0.8220    0.8758
Li    Li1512        0.5553    0.8955    0.8771
Li    Li1513        0.7161    0.8976    0.1230
Li    Li1514        0.6710    0.9132    0.1407
Li    Li1515        0.5774    0.9525    0.7328
Li    Li1516        0.6683    0.9378    0.5118
Li    Li1517        0.5478    0.9607    0.5162
Li    Li1518        0.5389    0.9886    0.6423
Li    Li1519        0.5411    0.9977    0.8902
Li    Li1520        0.7931    0.0587    0.0186
Li    Li1521        0.9556    0.0551    0.2392
Li    Li1522        0.9177    0.0517    0.2735
Li    Li1523        0.9555    0.0472    0.4981
Li    Li1524        0.9088    0.0091    0.3764
Li    Li1525        0.8242    0.0675    0.7443
Li    Li1526        0.9626    0.0006    0.6023
Li    Li1527        0.9062    0.0044    0.6299
Li    Li1528        0.8387    0.0493    0.9843
Li    Li1529        0.7976    0.0521    0.7647
Li    Li1530        0.8350    0.1478    0.2353
Li    Li1531        0.7961    0.1519    0.0206
Li    Li1532        0.9571    0.1357    0.2340
Li    Li1533        0.7936    0.2113    0.1285
Li    Li1534        0.9142    0.1067    0.1380
Li    Li1535        0.8329    0.1462    0.4809
Li    Li1536        0.7942    0.1398    0.2627
Li    Li1537        0.9583    0.1046    0.3515
Li    Li1538        0.7968    0.2028    0.3744
Li    Li1539        0.7896    0.1596    0.5158
Li    Li1540        0.9545    0.1122    0.8521
Li    Li1541        0.9132    0.1018    0.8835
Li    Li1542        0.8313    0.2534    0.2404
Li    Li1543        0.7957    0.2462    0.0140
Li    Li1544        0.9531    0.2381    0.2375
Li    Li1545        0.7814    0.3011    0.1514
Li    Li1546        0.9215    0.2043    0.1465
Li    Li1547        0.9162    0.2507    0.2690
Li    Li1548        0.7866    0.2526    0.2889
Li    Li1549        0.9544    0.1959    0.3679
Li    Li1550        0.7938    0.2874    0.3905
Li    Li1551        0.8308    0.2399    0.7432
Li    Li1552        0.7984    0.2505    0.5104
Li    Li1553        0.7945    0.2964    0.6301
Li    Li1554        0.9306    0.2131    0.6320
Li    Li1555        0.7950    0.2639    0.7668
Li    Li1556        0.7944    0.3045    0.8841
Li    Li1557        0.9172    0.2062    0.8902
Li    Li1558        0.8344    0.3442    0.2546
Li    Li1559        0.9317    0.3325    0.0028
Li    Li1560        0.7889    0.3871    0.1470
Li    Li1561        0.9154    0.2905    0.1486
Li    Li1562        0.7927    0.3572    0.2591
Li    Li1563        0.9590    0.3004    0.3492
Li    Li1564        0.9637    0.2890    0.6005
Li    Li1565        0.9180    0.2963    0.6429
Li    Li1566        0.9184    0.2984    0.8948
Li    Li1567        0.9126    0.4475    0.0132
Li    Li1568        0.9607    0.4471    0.2350
Li    Li1569        0.8316    0.4556    0.4801
Li    Li1570        0.9646    0.4471    0.5009
Li    Li1571        0.7924    0.4949    0.3933
Li    Li1572        0.8283    0.4642    0.9818
Li    Li1573        0.9130    0.5421    0.0124
Li    Li1574        0.9586    0.4992    0.3494
Li    Li1575        0.8374    0.6038    0.3557
Li    Li1576        0.9630    0.5037    0.6063
Li    Li1577        0.7957    0.5898    0.8908
Li    Li1578        0.9181    0.6510    0.0035
Li    Li1579        0.9676    0.5966    0.1260
Li    Li1580        0.7931    0.6916    0.1455
Li    Li1581        0.9565    0.6114    0.3553
Li    Li1582        0.7592    0.6924    0.3812
Li    Li1583        0.8257    0.6863    0.3539
Li    Li1584        0.9629    0.6383    0.7283
Li    Li1585        0.7897    0.6575    0.7662
Li    Li1586        0.9528    0.6438    0.9765
Li    Li1587        0.9190    0.6034    0.9002
Li    Li1588        0.9307    0.7375    0.0029
Li    Li1589        0.7958    0.7653    0.0226
Li    Li1590        0.9621    0.7430    0.2345
Li    Li1591        0.9599    0.7023    0.1101
Li    Li1592        0.8265    0.7842    0.1112
Li    Li1593        0.8014    0.8008    0.3869
Li    Li1594        0.9187    0.7052    0.6365
Li    Li1595        0.8296    0.8099    0.6191
Li    Li1596        0.8313    0.7453    0.9755
Li    Li1597        0.9281    0.7346    0.7693
Li    Li1598        0.9634    0.7487    0.9926
Li    Li1599        0.9519    0.7087    0.8571
Li    Li1600        0.8085    0.7852    0.8798
Li    Li1601        0.9149    0.8504    0.9967
Li    Li1602        0.7929    0.8554    0.0135
Li    Li1603        0.9597    0.8412    0.2318
Li    Li1604        0.8324    0.8887    0.1105
Li    Li1605        0.9563    0.8065    0.8583
Li    Li1606        0.7938    0.9019    0.8917
Li    Li1607        0.8334    0.9523    0.4853
Li    Li1608        0.9470    0.9463    0.4928
Li    Li1609        0.8334    0.9605    0.7337
Li    Li1610        0.7916    0.9492    0.5247
Li    Li1611        0.7993    0.0028    0.6391
Li    Li1612        0.1221    0.0056    0.1004
Li    Li1613        0.2496    0.0678    0.2211
Li    Li1614        0.0093    0.0066    0.3922
Li    Li1615        0.2556    0.0817    0.3455
Li    Li1616        0.1259    0.0893    0.4031
Li    Li1617        0.9772    0.0283    0.2575
Li    Li1618        0.1208    0.0100    0.5988
Li    Li1619        0.2711    0.0845    0.8519
Li    Li1620        0.1313    0.0966    0.8943
Li    Li1621        0.1249    0.0615    0.7754
Li    Li1622        0.0010    0.1444    0.0319
Li    Li1623        0.0079    0.1103    0.4029
Li    Li1624        0.1288    0.1948    0.4098
Li    Li1625        0.1164    0.1651    0.2918
Li    Li1626        0.1318    0.1429    0.4764
Li    Li1627        0.9919    0.1404    0.2975
Li    Li1628        0.1300    0.1075    0.5892
Li    Li1629        0.1599    0.1553    0.5398
Li    Li1630        0.1483    0.1321    0.7217
Li    Li1631        0.0158    0.1375    0.5334
Li    Li1632        0.9910    0.1202    0.9002
Li    Li1633        0.2570    0.1926    0.8383
Li    Li1634        0.1103    0.1063    0.8516
Li    Li1635        0.1463    0.1875    0.9100
Li    Li1636        0.1113    0.1371    0.9757
Li    Li1637        0.1196    0.2612    0.0309
Li    Li1638        0.2486    0.2549    0.2186
Li    Li1639        0.0005    0.2091    0.3908
Li    Li1640        0.2554    0.2802    0.3609
Li    Li1641        0.1220    0.2104    0.3540
Li    Li1642        0.1212    0.2931    0.4058
Li    Li1643        0.1135    0.2551    0.2851
Li    Li1644        0.0014    0.2099    0.6596
Li    Li1645        0.2549    0.2881    0.5932
Li    Li1646        0.1222    0.2142    0.6004
Li    Li1647        0.1454    0.2893    0.6479
Li    Li1648        0.1309    0.2608    0.5273
Li    Li1649        0.2460    0.2541    0.7248
Li    Li1650        0.9961    0.2379    0.5238
Li    Li1651        0.2485    0.2918    0.8339
Li    Li1652        0.1238    0.2080    0.8507
Li    Li1653        0.1288    0.2890    0.8986
Li    Li1654        0.0954    0.2642    0.7783
Li    Li1655        0.0071    0.2330    0.7762
Li    Li1656        0.1255    0.3073    0.0998
Li    Li1657        0.1419    0.3897    0.1556
Li    Li1658        0.1191    0.3611    0.0078
Li    Li1659        0.1350    0.3378    0.2137
Li    Li1660        0.9968    0.3388    0.0272
Li    Li1661        0.9972    0.3147    0.4124
Li    Li1662        0.2283    0.3867    0.3518
Li    Li1663        0.1338    0.3144    0.3631
Li    Li1664        0.1177    0.3798    0.3962
Li    Li1665        0.1452    0.3289    0.4745
Li    Li1666        0.2661    0.3738    0.4769
Li    Li1667        0.9879    0.3409    0.3005
Li    Li1668        0.9844    0.3132    0.6502
Li    Li1669        0.2589    0.3802    0.6050
Li    Li1670        0.1392    0.3873    0.6506
Li    Li1671        0.1238    0.3633    0.5245
Li    Li1672        0.2629    0.3671    0.7231
Li    Li1673        0.2538    0.3886    0.8380
Li    Li1674        0.1274    0.3088    0.8443
Li    Li1675        0.1237    0.3555    0.7813
Li    Li1676        0.1241    0.4051    0.0962
Li    Li1677        0.1046    0.4393    0.2170
Li    Li1678        0.9890    0.4320    0.0243
Li    Li1679        0.9946    0.4108    0.4026
Li    Li1680        0.1260    0.4865    0.4038
Li    Li1681        0.1215    0.4609    0.2740
Li    Li1682        0.1354    0.4278    0.4835
Li    Li1683        0.9919    0.4408    0.2833
Li    Li1684        0.2269    0.4827    0.6039
Li    Li1685        0.1287    0.4215    0.6002
Li    Li1686        0.1310    0.4974    0.6419
Li    Li1687        0.1245    0.4405    0.7073
Li    Li1688        0.0130    0.4432    0.5204
Li    Li1689        0.0106    0.4115    0.9052
Li    Li1690        0.1060    0.4037    0.8640
Li    Li1691        0.1211    0.4899    0.9018
Li    Li1692        0.1290    0.4628    0.7782
Li    Li1693        0.2316    0.4652    0.9703
Li    Li1694        0.0098    0.4317    0.7790
Li    Li1695        0.1401    0.5881    0.1528
Li    Li1696        0.2335    0.5839    0.3446
Li    Li1697        0.1225    0.5069    0.3450
Li    Li1698        0.1250    0.5870    0.4026
Li    Li1699        0.2499    0.5566    0.4645
Li    Li1700        0.9848    0.5376    0.2864
Li    Li1701        0.9952    0.5064    0.6613
Li    Li1702        0.2448    0.5920    0.5982
Li    Li1703        0.1305    0.5093    0.5961
Li    Li1704        0.1192    0.5604    0.5325
Li    Li1705        0.9958    0.5223    0.5233
Li    Li1706        0.9966    0.5146    0.9107
Li    Li1707        0.1293    0.5089    0.8374
Li    Li1708        0.1182    0.5804    0.9022
Li    Li1709        0.1443    0.5682    0.7728
Li    Li1710        0.1507    0.5386    0.9710
Li    Li1711        0.2439    0.5641    0.9758
Li    Li1712        0.9878    0.6166    0.1548
Li    Li1713        0.1407    0.6173    0.0863
Li    Li1714        0.1317    0.6600    0.0365
Li    Li1715        0.1285    0.6355    0.2177
Li    Li1716        0.2418    0.6599    0.2252
Li    Li1717        0.2517    0.6883    0.3388
Li    Li1718        0.1200    0.6053    0.3404
Li    Li1719        0.1162    0.6796    0.3930
Li    Li1720        0.1386    0.6414    0.4552
Li    Li1721        0.2463    0.6622    0.4759
Li    Li1722        0.0047    0.6441    0.2762
Li    Li1723        0.9926    0.6053    0.6642
Li    Li1724        0.1425    0.6163    0.5967
Li    Li1725        0.1448    0.6321    0.9817
Li    Li1726        0.9857    0.6410    0.7830
Li    Li1727        0.0011    0.7179    0.1468
Li    Li1728        0.1456    0.7170    0.0884
Li    Li1729        0.1430    0.7665    0.0353
Li    Li1730        0.2570    0.7539    0.2105
Li    Li1731        0.0004    0.7355    0.0309
Li    Li1732        0.1254    0.7662    0.2761
Li    Li1733        0.1180    0.7472    0.4865
Li    Li1734        0.0197    0.7247    0.2785
Li    Li1735        0.2493    0.7893    0.5924
Li    Li1736        0.1138    0.7841    0.6537
Li    Li1737        0.1234    0.7466    0.7387
Li    Li1738        0.2510    0.7848    0.8479
Li    Li1739        0.2586    0.7538    0.9653
Li    Li1740        0.0091    0.7356    0.7762
Li    Li1741        0.0016    0.8103    0.1444
Li    Li1742        0.2591    0.8924    0.0777
Li    Li1743        0.0962    0.8295    0.0905
Li    Li1744        0.1296    0.8933    0.1423
Li    Li1745        0.1391    0.8658    0.0290
Li    Li1746        0.0016    0.8367    0.0322
Li    Li1747        0.2499    0.8869    0.3423
Li    Li1748        0.9835    0.8164    0.6513
Li    Li1749        0.1124    0.8661    0.5201
Li    Li1750        0.9928    0.8314    0.5205
Li    Li1751        0.1090    0.8214    0.8468
Li    Li1752        0.1168    0.8546    0.7839
Li    Li1753        0.1271    0.8327    0.9769
Li    Li1754        0.0084    0.8358    0.7784
Li    Li1755        0.2533    0.9795    0.0941
Li    Li1756        0.1216    0.9853    0.1410
Li    Li1757        0.2691    0.9613    0.2127
Li    Li1758        0.1064    0.9100    0.3412
Li    Li1759        0.1230    0.9579    0.2863
Li    Li1760        0.1177    0.9322    0.4694
Li    Li1761        0.1358    0.9868    0.6557
Li    Li1762        0.2657    0.9645    0.7142
Li    Li1763        0.0124    0.9391    0.5363
Li    Li1764        0.9929    0.9073    0.9045
Li    Li1765        0.1421    0.9247    0.8536
Li    Li1766        0.1291    0.9903    0.8873
Li    Li1767        0.1135    0.9701    0.7785
Li    Li1768        0.1245    0.9403    0.9760
Li    Li1769        0.2407    0.9527    0.9802
Li    Li1770        0.5145    0.0601    0.2071
Li    Li1771        0.2519    0.0392    0.2713
Li    Li1772        0.5030    0.1901    0.0945
Li    Li1773        0.3701    0.1940    0.1585
Li    Li1774        0.3734    0.1376    0.2238
Li    Li1775        0.2512    0.1404    0.0305
Li    Li1776        0.5202    0.1951    0.3456
Li    Li1777        0.3712    0.1606    0.2798
Li    Li1778        0.2400    0.1354    0.2729
Li    Li1779        0.2374    0.1199    0.6607
Li    Li1780        0.3735    0.1385    0.7270
Li    Li1781        0.2421    0.1132    0.9051
Li    Li1782        0.3734    0.1161    0.8394
Li    Li1783        0.5180    0.1622    0.9620
Li    Li1784        0.2636    0.1432    0.7737
Li    Li1785        0.5038    0.2881    0.0876
Li    Li1786        0.3893    0.2102    0.0951
Li    Li1787        0.3676    0.2914    0.1634
Li    Li1788        0.3981    0.2728    0.0162
Li    Li1789        0.3673    0.2375    0.2249
Li    Li1790        0.5011    0.2632    0.2200
Li    Li1791        0.2481    0.2179    0.4025
Li    Li1792        0.5058    0.2884    0.3473
Li    Li1793        0.2456    0.2052    0.6530
Li    Li1794        0.4857    0.2819    0.6022
Li    Li1795        0.3999    0.2315    0.7099
Li    Li1796        0.4888    0.2635    0.7146
Li    Li1797        0.2360    0.2372    0.5344
Li    Li1798        0.2348    0.2105    0.9193
Li    Li1799        0.3721    0.2980    0.9138
Li    Li1800        0.3769    0.2574    0.7750
Li    Li1801        0.3595    0.2369    0.9650
Li    Li1802        0.5180    0.3879    0.0919
Li    Li1803        0.3844    0.3199    0.1124
Li    Li1804        0.3972    0.3784    0.1478
Li    Li1805        0.3764    0.3577    0.0323
Li    Li1806        0.3787    0.3341    0.2257
Li    Li1807        0.4987    0.3573    0.2311
Li    Li1808        0.4974    0.3889    0.3499
Li    Li1809        0.3602    0.3877    0.4190
Li    Li1810        0.3724    0.3555    0.2822
Li    Li1811        0.3926    0.3236    0.4751
Li    Li1812        0.2454    0.3168    0.6520
Li    Li1813        0.3835    0.3097    0.5904
Li    Li1814        0.3666    0.3858    0.6433
Li    Li1815        0.3519    0.3629    0.5118
Li    Li1816        0.3800    0.3422    0.7228
Li    Li1817        0.2510    0.3355    0.5253
Li    Li1818        0.2427    0.3128    0.9170
Li    Li1819        0.3804    0.3138    0.8438
Li    Li1820        0.3787    0.3332    0.9805
Li    Li1821        0.5130    0.3644    0.9769
Li    Li1822        0.2301    0.4110    0.1626
Li    Li1823        0.3779    0.4174    0.1002
Li    Li1824        0.3741    0.4575    0.0428
Li    Li1825        0.3918    0.4382    0.2218
Li    Li1826        0.2448    0.4415    0.0313
Li    Li1827        0.5149    0.4846    0.3577
Li    Li1828        0.3569    0.4857    0.4104
Li    Li1829        0.3749    0.4361    0.4806
Li    Li1830        0.5096    0.4596    0.4525
Li    Li1831        0.5028    0.4945    0.5880
Li    Li1832        0.3787    0.4632    0.5283
Li    Li1833        0.3514    0.4234    0.7287
Li    Li1834        0.2419    0.4154    0.9121
Li    Li1835        0.3795    0.4941    0.8934
Li    Li1836        0.3947    0.5852    0.1587
Li    Li1837        0.3768    0.5574    0.0239
Li    Li1838        0.2294    0.5374    0.0239
Li    Li1839        0.2502    0.5111    0.3932
Li    Li1840        0.5039    0.5965    0.3343
Li    Li1841        0.3876    0.5327    0.4765
Li    Li1842        0.2263    0.5136    0.6535
Li    Li1843        0.3601    0.5626    0.5495
Li    Li1844        0.4915    0.5621    0.7214
Li    Li1845        0.2488    0.5365    0.5289
Li    Li1846        0.2409    0.5095    0.9148
Li    Li1847        0.4988    0.5881    0.8515
Li    Li1848        0.3936    0.5200    0.8495
Li    Li1849        0.3819    0.5857    0.9099
Li    Li1850        0.3783    0.5385    0.9672
Li    Li1851        0.2472    0.5431    0.7931
Li    Li1852        0.2461    0.6171    0.1451
Li    Li1853        0.5052    0.6930    0.0876
Li    Li1854        0.3645    0.6119    0.1036
Li    Li1855        0.3983    0.6899    0.1550
Li    Li1856        0.3771    0.6586    0.0325
Li    Li1857        0.3875    0.6431    0.2116
Li    Li1858        0.5021    0.6622    0.2201
Li    Li1859        0.2382    0.6075    0.4047
Li    Li1860        0.4977    0.6849    0.3481
Li    Li1861        0.3715    0.6164    0.3463
Li    Li1862        0.3527    0.6792    0.3871
Li    Li1863        0.3819    0.6432    0.4593
Li    Li1864        0.5033    0.6961    0.5878
Li    Li1865        0.3797    0.6095    0.5907
Li    Li1866        0.3649    0.6632    0.5440
Li    Li1867        0.2420    0.6420    0.5302
Li    Li1868        0.2418    0.6310    0.9036
Li    Li1869        0.3795    0.6171    0.8376
Li    Li1870        0.3737    0.6970    0.9050
Li    Li1871        0.3750    0.6390    0.9586
Li    Li1872        0.4932    0.7621    0.2226
Li    Li1873        0.2472    0.7131    0.4044
Li    Li1874        0.5085    0.7929    0.3321
Li    Li1875        0.3719    0.7168    0.3419
Li    Li1876        0.3644    0.7701    0.2753
Li    Li1877        0.4829    0.7684    0.4706
Li    Li1878        0.2629    0.7531    0.2625
Li    Li1879        0.5160    0.7869    0.5966
Li    Li1880        0.3723    0.7134    0.6081
Li    Li1881        0.3631    0.7635    0.5415
Li    Li1882        0.3757    0.7377    0.7227
Li    Li1883        0.5051    0.7579    0.7203
Li    Li1884        0.2526    0.7389    0.5313
Li    Li1885        0.2680    0.7227    0.9050
Li    Li1886        0.5062    0.7848    0.8476
Li    Li1887        0.3652    0.7939    0.9049
Li    Li1888        0.3753    0.7561    0.7794
Li    Li1889        0.3736    0.7373    0.9786
Li    Li1890        0.4849    0.7627    0.9753
Li    Li1891        0.2417    0.8171    0.1422
Li    Li1892        0.5002    0.8959    0.0891
Li    Li1893        0.3759    0.8143    0.0953
Li    Li1894        0.3752    0.8873    0.1525
Li    Li1895        0.3774    0.8377    0.2187
Li    Li1896        0.3598    0.8682    0.2698
Li    Li1897        0.4987    0.8572    0.4680
Li    Li1898        0.2545    0.8342    0.2797
Li    Li1899        0.4950    0.8685    0.7225
Li    Li1900        0.5069    0.8902    0.8350
Li    Li1901        0.3610    0.8049    0.8401
Li    Li1902        0.5102    0.8755    0.9747
Li    Li1903        0.2671    0.9129    0.1561
Li    Li1904        0.3814    0.9175    0.1115
Li    Li1905        0.3620    0.9640    0.0222
Li    Li1906        0.2452    0.9340    0.0239
Li    Li1907        0.4902    0.9831    0.3434
Li    Li1908        0.3779    0.9585    0.2868
Li    Li1909        0.5076    0.9585    0.4666
Li    Li1910        0.2538    0.9411    0.2708
Li    Li1911        0.4993    0.9963    0.6157
Li    Li1912        0.3590    0.9758    0.6530
Li    Li1913        0.3728    0.9434    0.7155
Li    Li1914        0.2573    0.9164    0.9051
Li    Li1915        0.5157    0.9870    0.8394
Li    Li1916        0.3702    0.9888    0.8953
Li    Li1917        0.5007    0.9728    0.9757
Li    Li1918        0.2503    0.9395    0.7863
Li    Li1919        0.5096    0.0144    0.1569
Li    Li1920        0.7756    0.0748    0.1033
Li    Li1921        0.6173    0.0810    0.1590
Li    Li1922        0.6315    0.0435    0.2077
Li    Li1923        0.7528    0.0927    0.3438
Li    Li1924        0.6355    0.0161    0.6001
Li    Li1925        0.6111    0.0712    0.5304
Li    Li1926        0.6292    0.0410    0.7227
Li    Li1927        0.5188    0.0372    0.5249
Li    Li1928        0.4683    0.0113    0.9144
Li    Li1929        0.7581    0.0819    0.8578
Li    Li1930        0.6268    0.0101    0.8380
Li    Li1931        0.6448    0.0843    0.9030
Li    Li1932        0.4934    0.1295    0.1473
Li    Li1933        0.7638    0.1876    0.0927
Li    Li1934        0.6279    0.1067    0.0917
Li    Li1935        0.6373    0.1650    0.0249
Li    Li1936        0.6141    0.1237    0.2154
Li    Li1937        0.7649    0.1623    0.2209
Li    Li1938        0.6198    0.1880    0.4103
Li    Li1939        0.6083    0.1699    0.2713
Li    Li1940        0.5039    0.1409    0.2622
Li    Li1941        0.7494    0.1874    0.8479
Li    Li1942        0.6393    0.1239    0.8588
Li    Li1943        0.6454    0.1344    0.9705
Li    Li1944        0.7586    0.1683    0.9729
Li    Li1945        0.4867    0.1449    0.7905
Li    Li1946        0.5017    0.2129    0.1510
Li    Li1947        0.7518    0.2860    0.1100
Li    Li1948        0.6405    0.2159    0.1055
Li    Li1949        0.6226    0.2896    0.1607
Li    Li1950        0.6176    0.2577    0.0343
Li    Li1951        0.6123    0.2662    0.2776
Li    Li1952        0.5233    0.2204    0.2706
Li    Li1953        0.7561    0.2925    0.5835
Li    Li1954        0.6198    0.2838    0.6460
Li    Li1955        0.6273    0.2549    0.5281
Li    Li1956        0.7627    0.2542    0.7168
Li    Li1957        0.6265    0.2011    0.8516
Li    Li1958        0.6103    0.2589    0.7905
Li    Li1959        0.6354    0.2429    0.9629
Li    Li1960        0.4835    0.3184    0.1495
Li    Li1961        0.7566    0.3914    0.0934
Li    Li1962        0.6502    0.3096    0.0932
Li    Li1963        0.6282    0.3857    0.1416
Li    Li1964        0.6209    0.3637    0.0224
Li    Li1965        0.4850    0.3281    0.0239
Li    Li1966        0.6100    0.3081    0.3493
Li    Li1967        0.6298    0.3621    0.2771
Li    Li1968        0.4953    0.3084    0.6510
Li    Li1969        0.6328    0.3038    0.5889
Li    Li1970        0.4838    0.3128    0.9041
Li    Li1971        0.7598    0.3653    0.9853
Li    Li1972        0.5042    0.3412    0.7623
Li    Li1973        0.7439    0.4816    0.0992
Li    Li1974        0.6184    0.4170    0.0913
Li    Li1975        0.4988    0.4117    0.4018
Li    Li1976        0.7593    0.4813    0.3591
Li    Li1977        0.6448    0.4843    0.3969
Li    Li1978        0.4948    0.4451    0.2897
Li    Li1979        0.6268    0.4921    0.6498
Li    Li1980        0.6448    0.4619    0.5278
Li    Li1981        0.5029    0.4440    0.5248
Li    Li1982        0.6437    0.4850    0.9007
Li    Li1983        0.6419    0.5134    0.0951
Li    Li1984        0.6207    0.5892    0.1509
Li    Li1985        0.6340    0.5636    0.0321
Li    Li1986        0.7432    0.5567    0.2271
Li    Li1987        0.6110    0.5150    0.3478
Li    Li1988        0.7595    0.5799    0.4719
Li    Li1989        0.4951    0.5089    0.6485
Li    Li1990        0.6404    0.5421    0.7153
Li    Li1991        0.6247    0.5461    0.9679
Li    Li1992        0.4958    0.5439    0.7936
Li    Li1993        0.7514    0.6908    0.0938
Li    Li1994        0.6310    0.6050    0.0979
Li    Li1995        0.6131    0.6309    0.2194
Li    Li1996        0.7569    0.6590    0.2204
Li    Li1997        0.4859    0.6334    0.0241
Li    Li1998        0.7492    0.6922    0.3397
Li    Li1999        0.6399    0.6105    0.3400
Li    Li2000        0.6166    0.6642    0.2855
Li    Li2001        0.5058    0.6346    0.5315
Li    Li2002        0.5186    0.6183    0.9091
Li    Li2003        0.7576    0.7932    0.0919
Li    Li2004        0.6187    0.7112    0.0970
Li    Li2005        0.6128    0.7598    0.0301
Li    Li2006        0.6360    0.7402    0.2156
Li    Li2007        0.5052    0.7415    0.0278
Li    Li2008        0.4959    0.7061    0.4068
Li    Li2009        0.7585    0.7975    0.3459
Li    Li2010        0.6309    0.7061    0.3430
Li    Li2011        0.6502    0.7647    0.2831
Li    Li2012        0.6319    0.7295    0.4722
Li    Li2013        0.4823    0.7322    0.2729
Li    Li2014        0.7488    0.7953    0.5888
Li    Li2015        0.6306    0.7111    0.5871
Li    Li2016        0.6150    0.7884    0.6548
Li    Li2017        0.5982    0.7429    0.7212
Li    Li2018        0.5000    0.7407    0.5292
Li    Li2019        0.6162    0.7833    0.8986
Li    Li2020        0.7637    0.7594    0.9686
Li    Li2021        0.7603    0.8801    0.1088
Li    Li2022        0.6188    0.8860    0.1542
Li    Li2023        0.4999    0.8406    0.0206
Li    Li2024        0.4782    0.8126    0.6498
Li    Li2025        0.7334    0.8917    0.6040
Li    Li2026        0.6351    0.8133    0.5951
Li    Li2027        0.5001    0.8380    0.5247
Li    Li2028        0.4949    0.8120    0.9049
Li    Li2029        0.6312    0.8152    0.8475
Li    Li2030        0.6234    0.8987    0.8850
Li    Li2031        0.6179    0.8648    0.7827
Li    Li2032        0.6336    0.8366    0.9797
Li    Li2033        0.7561    0.8536    0.9673
Li    Li2034        0.5087    0.8372    0.7805
Li    Li2035        0.6147    0.9146    0.0967
Li    Li2036        0.6289    0.9598    0.0204
Li    Li2037        0.6454    0.9340    0.2228
Li    Li2038        0.5006    0.9427    0.0347
Li    Li2039        0.6436    0.9326    0.4692
Li    Li2040        0.4976    0.9137    0.6622
Li    Li2041        0.7597    0.9887    0.5901
Li    Li2042        0.6393    0.9115    0.5925
Li    Li2043        0.6122    0.9897    0.6579
Li    Li2044        0.6176    0.9426    0.7180
Li    Li2045        0.7578    0.9590    0.7124
Li    Li2046        0.6383    0.9172    0.8459
Li    Li2047        0.6278    0.9647    0.7718
Li    Li2048        0.6449    0.9379    0.9781
Li    Li2049        0.5059    0.9435    0.7708
Li    Li2050        0.7491    0.0115    0.1592
Li    Li2051        0.8673    0.0451    0.2302
Li    Li2052        0.0086    0.0926    0.3396
Li    Li2053        0.8872    0.0097    0.3342
Li    Li2054        0.8727    0.0615    0.2742
Li    Li2055        0.7440    0.0082    0.6579
Li    Li2056        0.8842    0.0096    0.5915
Li    Li2057        0.0002    0.0893    0.8425
Li    Li2058        0.8737    0.0891    0.9107
Li    Li2059        0.8635    0.0531    0.7830
Li    Li2060        0.8609    0.0302    0.9680
Li    Li2061        0.7342    0.0381    0.7856
Li    Li2062        0.9833    0.1867    0.0935
Li    Li2063        0.8662    0.1171    0.0968
Li    Li2064        0.8767    0.1331    0.2251
Li    Li2065        0.0068    0.1607    0.2217
Li    Li2066        0.7461    0.1459    0.0339
Li    Li2067        0.7496    0.1065    0.3997
Li    Li2068        0.0002    0.1908    0.3432
Li    Li2069        0.8928    0.1121    0.3504
Li    Li2070        0.8578    0.1791    0.4001
Li    Li2071        0.8787    0.1615    0.2760
Li    Li2072        0.8835    0.1370    0.4747
Li    Li2073        0.7588    0.1390    0.2835
Li    Li2074        0.7328    0.1151    0.9130
Li    Li2075        0.8664    0.1168    0.8435
Li    Li2076        0.0039    0.1730    0.9763
Li    Li2077        0.8755    0.2118    0.1072
Li    Li2078        0.8694    0.2843    0.1503
Li    Li2079        0.8751    0.2600    0.0374
Li    Li2080        0.7365    0.2113    0.3820
Li    Li2081        0.0109    0.2943    0.3436
Li    Li2082        0.8684    0.2607    0.2766
Li    Li2083        0.8802    0.2432    0.4721
Li    Li2084        0.0039    0.2643    0.4725
Li    Li2085        0.7502    0.2123    0.6474
Li    Li2086        0.0033    0.2763    0.5998
Li    Li2087        0.8860    0.2166    0.5861
Li    Li2088        0.8533    0.2833    0.6472
Li    Li2089        0.8905    0.2652    0.5327
Li    Li2090        0.8727    0.2308    0.7290
Li    Li2091        0.0069    0.2561    0.7207
Li    Li2092        0.7317    0.2381    0.5411
Li    Li2093        0.7481    0.2134    0.9063
Li    Li2094        0.0039    0.3007    0.8464
Li    Li2095        0.8875    0.2207    0.8486
Li    Li2096        0.8855    0.2857    0.9029
Li    Li2097        0.8823    0.2587    0.7752
Li    Li2098        0.9990    0.2569    0.9678
Li    Li2099        0.8620    0.3133    0.0938
Li    Li2100        0.8789    0.3363    0.2344
Li    Li2101        0.7517    0.3425    0.0287
Li    Li2102        0.7413    0.3034    0.4052
Li    Li2103        0.0141    0.3799    0.3547
Li    Li2104        0.8733    0.3592    0.2770
Li    Li2105        0.7478    0.3390    0.2710
Li    Li2106        0.7500    0.3132    0.6575
Li    Li2107        0.7459    0.3135    0.9000
Li    Li2108        0.7287    0.4163    0.1397
Li    Li2109        0.0037    0.4885    0.0975
Li    Li2110        0.8683    0.4764    0.0233
Li    Li2111        0.0066    0.4526    0.2169
Li    Li2112        0.8702    0.4837    0.3925
Li    Li2113        0.8921    0.4389    0.4706
Li    Li2114        0.9794    0.4875    0.5982
Li    Li2115        0.9986    0.4600    0.7172
Li    Li2116        0.8625    0.4417    0.9769
Li    Li2117        0.0141    0.5649    0.2180
Li    Li2118        0.7429    0.5271    0.0231
Li    Li2119        0.7397    0.5148    0.3890
Li    Li2120        0.9895    0.5885    0.3544
Li    Li2121        0.8622    0.5812    0.3966
Li    Li2122        0.8881    0.5431    0.4635
Li    Li2123        0.9960    0.5596    0.4706
Li    Li2124        0.7377    0.5345    0.2740
Li    Li2125        0.0067    0.5723    0.7259
Li    Li2126        0.9990    0.5851    0.8460
Li    Li2127        0.8769    0.5358    0.9782
Li    Li2128        0.7326    0.6129    0.1625
Li    Li2129        0.0085    0.6804    0.0796
Li    Li2130        0.8620    0.6340    0.2221
Li    Li2131        0.9969    0.6664    0.2236
Li    Li2132        0.9995    0.6901    0.3423
Li    Li2133        0.8787    0.6127    0.3422
Li    Li2134        0.0146    0.6515    0.4680
Li    Li2135        0.7644    0.6343    0.2796
Li    Li2136        0.8759    0.6894    0.6530
Li    Li2137        0.0086    0.6645    0.7191
Li    Li2138        0.8934    0.6226    0.8569
Li    Li2139        0.8703    0.6558    0.7851
Li    Li2140        0.0172    0.6620    0.9814
Li    Li2141        0.7400    0.6428    0.7817
Li    Li2142        0.7377    0.7165    0.1376
Li    Li2143        0.9981    0.7912    0.0991
Li    Li2144        0.8807    0.7355    0.2084
Li    Li2145        0.7452    0.7385    0.0480
Li    Li2146        0.7421    0.7167    0.3957
Li    Li2147        0.0173    0.7890    0.3405
Li    Li2148        0.8780    0.7034    0.3444
Li    Li2149        0.8671    0.7889    0.4123
Li    Li2150        0.8655    0.7673    0.5191
Li    Li2151        0.8851    0.7311    0.7196
Li    Li2152        0.9999    0.7637    0.7221
Li    Li2153        0.0039    0.7836    0.8483
Li    Li2154        0.8663    0.7146    0.8451
Li    Li2155        0.8646    0.7862    0.9047
Li    Li2156        0.7526    0.8152    0.1535
Li    Li2157        0.8764    0.8456    0.2106
Li    Li2158        0.7407    0.8346    0.0259
Li    Li2159        0.0055    0.8860    0.3464
Li    Li2160        0.8819    0.8164    0.3596
Li    Li2161        0.8736    0.8848    0.4004
Li    Li2162        0.7530    0.8107    0.6531
Li    Li2163        0.9885    0.8875    0.5954
Li    Li2164        0.8881    0.8464    0.7103
Li    Li2165        0.7611    0.8329    0.5232
Li    Li2166        0.9982    0.8877    0.8459
Li    Li2167        0.8886    0.8116    0.8556
Li    Li2168        0.8625    0.8880    0.9095
Li    Li2169        0.8780    0.8396    0.9649
Li    Li2170        0.0088    0.9664    0.2270
Li    Li2171        0.0075    0.9910    0.3384
Li    Li2172        0.8758    0.9912    0.4060
Li    Li2173        0.8901    0.9442    0.4699
Li    Li2174        0.7282    0.9203    0.6472
Li    Li2175        0.0115    0.9906    0.6000
Li    Li2176        0.8599    0.9379    0.7203
Li    Li2177        0.9919    0.9635    0.7223
Li    Li2178        0.7444    0.9342    0.5214
