data_max_cluster
_audit_creation_method         'generated by data2config v5.5c'
 
_cell_length_a                  84.92680
_cell_length_b                  87.57400
_cell_length_c                  75.14280
_cell_angle_alpha               90.00000
_cell_angle_beta                96.73700
_cell_angle_gamma               90.00000
 
loop_
_symmetry_equiv_pos_as_xyz
'+x,+y,+z'
 
loop_
_atom_site_type_symbol
_atom_site_label
_atom_site_fract_x
_atom_site_fract_y
_atom_site_fract_z
Li    Li1        0.2119    0.0120    0.1652
Li    Li2        0.1668    0.7384    0.4613
Li    Li3        0.2144    0.7072    0.4118
Li    Li4        0.2089    0.8394    0.0415
Li    Li5        0.1602    0.8140    0.0853
Li    Li6        0.2197    0.8082    0.1644
Li    Li7        0.1665    0.8392    0.4546
Li    Li8        0.2109    0.8363    0.5343
Li    Li9        0.0862    0.8597    0.5333
Li    Li10        0.0417    0.8886    0.5897
Li    Li11        0.2138    0.9134    0.6638
Li    Li12        0.1604    0.9346    0.9651
Li    Li13        0.4583    0.6437    0.2840
Li    Li14        0.3406    0.6599    0.2860
Li    Li15        0.4601    0.6347    0.5316
Li    Li16        0.3381    0.8623    0.0377
Li    Li17        0.2889    0.8855    0.0909
Li    Li18        0.4198    0.8446    0.7131
Li    Li19        0.3354    0.8884    0.6566
Li    Li20        0.2870    0.8852    0.8379
Li    Li21        0.2927    0.9536    0.2153
Li    Li22        0.4126    0.9429    0.2161
Li    Li23        0.2892    0.9621    0.7179
Li    Li24        0.4113    0.9061    0.8344
Li    Li25        0.5840    0.6625    0.5377
Li    Li26        0.6640    0.7076    0.5916
Li    Li27        0.5840    0.7626    0.7915
Li    Li28        0.7047    0.8436    0.7849
Li    Li29        0.5876    0.8609    0.7850
Li    Li30        0.6634    0.8100    0.8392
Li    Li31        0.8315    0.6699    0.5300
Li    Li32        0.9668    0.9407    0.5347
Li    Li33        0.9120    0.9069    0.5886
Li    Li34        0.1707    0.6240    0.4329
Li    Li35        0.2011    0.7309    0.4387
Li    Li36        0.1762    0.7083    0.4352
Li    Li37        0.1667    0.8307    0.0539
Li    Li38        0.1977    0.8372    0.1854
Li    Li39        0.1677    0.8176    0.1829
Li    Li40        0.0697    0.8654    0.4329
Li    Li41        0.2053    0.8312    0.4403
Li    Li42        0.1797    0.8377    0.5637
Li    Li43        0.0555    0.8610    0.5653
Li    Li44        0.0776    0.8930    0.5596
Li    Li45        0.0781    0.8666    0.9456
Li    Li46        0.1753    0.9077    0.4363
Li    Li47        0.1668    0.9165    0.6739
Li    Li48        0.2058    0.9364    0.9467
Li    Li49        0.4290    0.6397    0.3147
Li    Li50        0.3334    0.6738    0.4478
Li    Li51        0.3013    0.6693    0.3083
Li    Li52        0.2905    0.6811    0.4379
Li    Li53        0.4199    0.6252    0.5539
Li    Li54        0.4548    0.6120    0.5662
Li    Li55        0.4182    0.7327    0.0593
Li    Li56        0.2951    0.7739    0.1704
Li    Li57        0.4240    0.7149    0.1865
Li    Li58        0.3267    0.7642    0.9418
Li    Li59        0.2934    0.7753    0.9249
Li    Li60        0.3050    0.8603    0.0634
Li    Li61        0.3348    0.8840    0.0754
Li    Li62        0.3323    0.8672    0.6949
Li    Li63        0.4552    0.8310    0.6968
Li    Li64        0.4212    0.8250    0.6870
Li    Li65        0.2930    0.8685    0.8041
Li    Li66        0.3311    0.8739    0.8210
Li    Li67        0.4267    0.9309    0.0630
Li    Li68        0.4241    0.9159    0.1859
Li    Li69        0.4275    0.9350    0.8084
Li    Li70        0.4492    0.9317    0.9361
Li    Li71        0.4568    0.9227    0.8252
Li    Li72        0.3332    0.9790    0.8169
Li    Li73        0.4259    0.9089    0.9424
Li    Li74        0.5534    0.6599    0.5654
Li    Li75        0.5469    0.6845    0.6828
Li    Li76        0.5773    0.6827    0.5631
Li    Li77        0.6985    0.7307    0.6896
Li    Li78        0.7021    0.7047    0.5708
Li    Li79        0.6674    0.7211    0.6845
Li    Li80        0.5406    0.7759    0.8032
Li    Li81        0.7087    0.8189    0.8254
Li    Li82        0.7927    0.6709    0.5564
Li    Li83        0.8304    0.6758    0.5714
Li    Li84        0.9237    0.9379    0.5596
Li    Li85        0.9545    0.9179    0.5614
Li    Li86        0.2375    0.7403    0.4428
Li    Li87        0.2461    0.7085    0.3197
Li    Li88        0.1179    0.8587    0.4472
Li    Li89        0.2435    0.8445    0.9459
Li    Li90        0.2462    0.9356    0.1930
Li    Li91        0.1336    0.9100    0.4328
Li    Li92        0.1306    0.9445    0.5562
Li    Li93        0.2447    0.9438    0.6963
Li    Li94        0.1319    0.9050    0.6786
Li    Li95        0.3677    0.5930    0.3208
Li    Li96        0.3839    0.5430    0.5560
Li    Li97        0.3709    0.5900    0.5701
Li    Li98        0.3711    0.6584    0.1929
Li    Li99        0.3823    0.6394    0.3045
Li    Li100        0.3629    0.6600    0.4421
Li    Li101        0.2600    0.6668    0.3121
Li    Li102        0.2547    0.6907    0.4314
Li    Li103        0.3820    0.6416    0.5576
Li    Li104        0.4903    0.6479    0.6935
Li    Li105        0.3867    0.7426    0.0463
Li    Li106        0.2567    0.7868    0.1760
Li    Li107        0.3685    0.7926    0.0734
Li    Li108        0.2562    0.7581    0.3022
Li    Li109        0.4953    0.7407    0.6994
Li    Li110        0.2587    0.7930    0.9317
Li    Li111        0.3817    0.8361    0.0616
Li    Li112        0.2604    0.8499    0.0451
Li    Li113        0.2577    0.8884    0.4298
Li    Li114        0.3740    0.8614    0.6945
Li    Li115        0.4934    0.8414    0.6975
Li    Li116        0.2534    0.8870    0.9326
Li    Li117        0.4949    0.8089    0.8197
Li    Li118        0.3832    0.9360    0.0602
Li    Li119        0.2555    0.9563    0.0546
Li    Li120        0.2516    0.9806    0.1818
Li    Li121        0.3795    0.9124    0.1799
Li    Li122        0.3818    0.9053    0.6806
Li    Li123        0.2572    0.9580    0.8069
Li    Li124        0.4958    0.8994    0.8233
Li    Li125        0.3673    0.9899    0.8127
Li    Li126        0.3795    0.9060    0.9273
Li    Li127        0.6310    0.6386    0.5533
Li    Li128        0.5076    0.6610    0.5522
Li    Li129        0.5119    0.6924    0.6813
Li    Li130        0.7423    0.7056    0.5723
Li    Li131        0.6295    0.7145    0.6781
Li    Li132        0.5057    0.7654    0.8050
Li    Li133        0.6308    0.8390    0.8050
Li    Li134        0.5055    0.8598    0.8020
Li    Li135        0.7429    0.8124    0.8224
Li    Li136        0.7527    0.6601    0.5551
Li    Li137        0.8682    0.6911    0.5707
Li    Li138        0.8818    0.9355    0.5552
Li    Li139        0.8722    0.9876    0.5686
Li    Li140        0.2103    0.0053    0.1048
Li    Li141        0.2079    0.6450    0.4789
Li    Li142        0.2105    0.7075    0.3581
Li    Li143        0.2111    0.8443    0.4837
Li    Li144        0.1661    0.9376    0.5195
Li    Li145        0.2118    0.9409    0.9812
Li    Li146        0.2099    0.9064    0.8541
Li    Li147        0.3379    0.6561    0.2264
Li    Li148        0.3337    0.6551    0.4807
Li    Li149        0.4618    0.6419    0.4796
Li    Li150        0.2861    0.6929    0.3948
Li    Li151        0.4177    0.7399    0.0177
Li    Li152        0.2948    0.8601    0.0209
Li    Li153        0.4616    0.9061    0.1075
Li    Li154        0.2940    0.9570    0.7738
Li    Li155        0.5431    0.8589    0.7721
Li    Li156        0.1302    0.5908    0.4076
Li    Li157        0.2466    0.6919    0.3428
Li    Li158        0.1322    0.6907    0.4084
Li    Li159        0.2459    0.6525    0.4674
Li    Li160        0.1319    0.7922    0.1556
Li    Li161        0.2444    0.7578    0.2130
Li    Li162        0.2454    0.7937    0.3381
Li    Li163        0.1255    0.7393    0.4689
Li    Li164        0.1242    0.7601    0.5279
Li    Li165        0.2453    0.7590    0.9689
Li    Li166        0.2489    0.8924    0.0956
Li    Li167        0.1251    0.8087    0.0925
Li    Li168        0.1329    0.8555    0.0324
Li    Li169        0.1247    0.8958    0.4128
Li    Li170        0.2417    0.8568    0.4656
Li    Li171        0.2481    0.8945    0.5929
Li    Li172        0.1305    0.8913    0.6502
Li    Li173        0.1308    0.8520    0.5267
Li    Li174        0.2405    0.8947    0.8419
Li    Li175        0.1246    0.8471    0.9692
Li    Li176        0.2449    0.8539    0.9704
Li    Li177        0.2399    0.9965    0.0890
Li    Li178        0.2524    0.9559    0.2131
Li    Li179        0.1100    0.9380    0.4627
Li    Li180        0.1196    0.9068    0.5904
Li    Li181        0.2452    0.9606    0.7146
Li    Li182        0.0097    0.9449    0.5334
Li    Li183        0.1199    0.9450    0.9691
Li    Li184        0.2500    0.0006    0.1565
Li    Li185        0.3743    0.0027    0.8416
Li    Li186        0.3704    0.5102    0.5932
Li    Li187        0.3850    0.5957    0.6576
Li    Li188        0.3789    0.5562    0.5299
Li    Li189        0.3780    0.6970    0.1579
Li    Li190        0.3681    0.6454    0.2144
Li    Li191        0.3691    0.6071    0.3422
Li    Li192        0.3797    0.6916    0.3996
Li    Li193        0.3813    0.6549    0.2733
Li    Li194        0.3727    0.6481    0.4640
Li    Li195        0.3717    0.6071    0.5933
Li    Li196        0.3816    0.6509    0.5292
Li    Li197        0.3842    0.7619    0.0253
Li    Li198        0.2555    0.7045    0.4097
Li    Li199        0.2524    0.7448    0.2801
Li    Li200        0.3810    0.7937    0.6551
Li    Li201        0.4909    0.7570    0.7229
Li    Li202        0.4849    0.7885    0.8367
Li    Li203        0.3727    0.7449    0.9678
Li    Li204        0.2631    0.8083    0.1626
Li    Li205        0.3865    0.8907    0.1556
Li    Li206        0.3765    0.8519    0.7202
Li    Li207        0.4979    0.8555    0.7188
Li    Li208        0.2534    0.8437    0.5331
Li    Li209        0.4907    0.8934    0.8477
Li    Li210        0.3739    0.8858    0.9074
Li    Li211        0.3735    0.8653    0.7823
Li    Li212        0.2549    0.9031    0.1596
Li    Li213        0.3687    0.9053    0.0959
Li    Li214        0.3815    0.9528    0.0340
Li    Li215        0.2550    0.9405    0.0324
Li    Li216        0.2612    0.9129    0.4057
Li    Li217        0.2571    0.9081    0.6557
Li    Li218        0.2419    0.9129    0.9036
Li    Li219        0.3807    0.9538    0.7826
Li    Li220        0.3785    0.9368    0.9699
Li    Li221        0.4802    0.9577    0.9703
Li    Li222        0.2553    0.9429    0.7827
Li    Li223        0.6280    0.6918    0.6491
Li    Li224        0.6273    0.6548    0.5283
Li    Li225        0.4991    0.6435    0.5298
Li    Li226        0.6248    0.7057    0.5960
Li    Li227        0.6210    0.7459    0.7156
Li    Li228        0.6263    0.7552    0.7788
Li    Li229        0.5089    0.7413    0.7848
Li    Li230        0.6150    0.8155    0.8448
Li    Li231        0.6289    0.8543    0.7801
Li    Li232        0.5064    0.8433    0.7835
Li    Li233        0.5027    0.9414    0.0311
Li    Li234        0.8600    0.0095    0.5885
Li    Li235        0.9896    0.8855    0.5907
