data_max_cluster
_audit_creation_method         'generated by data2config v5.5c'
 
_cell_length_a                  84.92680
_cell_length_b                  87.57400
_cell_length_c                  75.14280
_cell_angle_alpha               90.00000
_cell_angle_beta                96.73700
_cell_angle_gamma               90.00000
 
loop_
_symmetry_equiv_pos_as_xyz
'+x,+y,+z'
 
loop_
_atom_site_type_symbol
_atom_site_label
_atom_site_fract_x
_atom_site_fract_y
_atom_site_fract_z
Li    Li1        0.1611    0.0141    0.0963
Li    Li2        0.2166    0.0117    0.4069
Li    Li3        0.2122    0.0070    0.9072
Li    Li4        0.0822    0.4867    0.4086
Li    Li5        0.0865    0.4636    0.5330
Li    Li6        0.1678    0.4356    0.9659
Li    Li7        0.0383    0.5552    0.4615
Li    Li8        0.0826    0.5955    0.4068
Li    Li9        0.1602    0.5166    0.5852
Li    Li10        0.0409    0.6623    0.2124
Li    Li11        0.1573    0.6391    0.2168
Li    Li12        0.0317    0.6865    0.0849
Li    Li13        0.0879    0.6575    0.2992
Li    Li14        0.0849    0.6921    0.4083
Li    Li15        0.0410    0.6901    0.3407
Li    Li16        0.1615    0.6114    0.5932
Li    Li17        0.0414    0.7602    0.2139
Li    Li18        0.2108    0.7294    0.5366
Li    Li19        0.2112    0.7161    0.9063
Li    Li20        0.2134    0.8373    0.0352
Li    Li21        0.1635    0.8183    0.0903
Li    Li22        0.0843    0.8553    0.2833
Li    Li23        0.0350    0.8871    0.3389
Li    Li24        0.0424    0.9843    0.0900
Li    Li25        0.1585    0.9094    0.3386
Li    Li26        0.1643    0.9429    0.9648
Li    Li27        0.0857    0.9885    0.9108
Li    Li28        0.2879    0.3821    0.0910
Li    Li29        0.2876    0.3606    0.7201
Li    Li30        0.4089    0.3387    0.7161
Li    Li31        0.4622    0.5326    0.0350
Li    Li32        0.2907    0.5789    0.0807
Li    Li33        0.4602    0.5355    0.7818
Li    Li34        0.2906    0.5556    0.9542
Li    Li35        0.4140    0.5433    0.9617
Li    Li36        0.4157    0.5095    0.8329
Li    Li37        0.4599    0.6369    0.0297
Li    Li38        0.3428    0.6609    0.0456
Li    Li39        0.4070    0.6411    0.9656
Li    Li40        0.3349    0.6938    0.9094
Li    Li41        0.4582    0.6110    0.9062
Li    Li42        0.4611    0.7387    0.0346
Li    Li43        0.2890    0.7609    0.2125
Li    Li44        0.3368    0.7859    0.9128
Li    Li45        0.3329    0.8620    0.0365
Li    Li46        0.2900    0.8865    0.0894
Li    Li47        0.4145    0.8336    0.9611
Li    Li48        0.3334    0.8954    0.9085
Li    Li49        0.3367    0.9917    0.4083
Li    Li50        0.5918    0.3952    0.6694
Li    Li51        0.7146    0.5344    0.0362
Li    Li52        0.5839    0.5840    0.1649
Li    Li53        0.5378    0.5883    0.0826
Li    Li54        0.5393    0.5621    0.9668
Li    Li55        0.5884    0.5838    0.9115
Li    Li56        0.5427    0.6900    0.0917
Li    Li57        0.6616    0.7106    0.0943
Li    Li58        0.7903    0.6627    0.2157
Li    Li59        0.8375    0.6896    0.1570
Li    Li60        0.9633    0.6100    0.4195
Li    Li61        0.9183    0.8396    0.2179
Li    Li62        0.9647    0.8185    0.1550
Li    Li63        0.1964    0.0222    0.0727
Li    Li64        0.0706    0.0636    0.4406
Li    Li65        0.2096    0.0269    0.4456
Li    Li66        0.1741    0.0226    0.4373
Li    Li67        0.1665    0.0226    0.9305
Li    Li68        0.1647    0.4288    0.0553
Li    Li69        0.2050    0.4115    0.0618
Li    Li70        0.0400    0.4818    0.4326
Li    Li71        0.2017    0.4338    0.6899
Li    Li72        0.0503    0.4672    0.5625
Li    Li73        0.1672    0.4207    0.6821
Li    Li74        0.1939    0.4382    0.9321
Li    Li75        0.1776    0.4087    0.9349
Li    Li76        0.2030    0.5342    0.4414
Li    Li77        0.0479    0.5787    0.4361
Li    Li78        0.1827    0.5185    0.4419
Li    Li79        0.1699    0.5416    0.5541
Li    Li80        0.1985    0.5126    0.5647
Li    Li81        0.0733    0.5869    0.5638
Li    Li82        0.1972    0.5390    0.9338
Li    Li83        0.0846    0.6703    0.1971
Li    Li84        0.2095    0.6273    0.0727
Li    Li85        0.0747    0.6667    0.4360
Li    Li86        0.2100    0.6256    0.4447
Li    Li87        0.0528    0.6659    0.3149
Li    Li88        0.0840    0.6770    0.3251
Li    Li89        0.1682    0.6187    0.4284
Li    Li90        0.2006    0.6163    0.5678
Li    Li91        0.1672    0.6264    0.6774
Li    Li92        0.0686    0.7658    0.1842
Li    Li93        0.1674    0.7181    0.1863
Li    Li94        0.1787    0.7322    0.3110
Li    Li95        0.0443    0.7684    0.3115
Li    Li96        0.2094    0.7199    0.3179
Li    Li97        0.1745    0.7157    0.4360
Li    Li98        0.2065    0.7352    0.9404
Li    Li99        0.1772    0.7183    0.9327
Li    Li100        0.1746    0.8350    0.0533
Li    Li101        0.1707    0.8193    0.1875
Li    Li102        0.0763    0.8682    0.4394
Li    Li103        0.0398    0.8658    0.3043
Li    Li104        0.0739    0.8825    0.3144
Li    Li105        0.2116    0.8230    0.9414
Li    Li106        0.1666    0.9310    0.0618
Li    Li107        0.0441    0.9654    0.0558
Li    Li108        0.0865    0.9768    0.0710
Li    Li109        0.1739    0.9328    0.3091
Li    Li110        0.2017    0.9168    0.4346
Li    Li111        0.2023    0.9196    0.3144
Li    Li112        0.1679    0.9221    0.4293
Li    Li113        0.2073    0.9359    0.9423
Li    Li114        0.0505    0.9755    0.9417
Li    Li115        0.2974    0.0705    0.0592
Li    Li116        0.2972    0.1709    0.0545
Li    Li117        0.3104    0.3630    0.0664
Li    Li118        0.3206    0.3877    0.0663
Li    Li119        0.3289    0.3664    0.6958
Li    Li120        0.4448    0.3408    0.6883
Li    Li121        0.2972    0.4709    0.0620
Li    Li122        0.3218    0.4617    0.6877
Li    Li123        0.2927    0.4794    0.6775
Li    Li124        0.4267    0.4154    0.6897
Li    Li125        0.4183    0.4239    0.8027
Li    Li126        0.2970    0.5662    0.0604
Li    Li127        0.4570    0.5147    0.0669
Li    Li128        0.2948    0.5661    0.5565
Li    Li129        0.2943    0.5798    0.6812
Li    Li130        0.4237    0.5360    0.8118
Li    Li131        0.3307    0.5654    0.9410
Li    Li132        0.4599    0.5297    0.9407
Li    Li133        0.4570    0.5242    0.8187
Li    Li134        0.4186    0.5110    0.9343
Li    Li135        0.2928    0.6641    0.0508
Li    Li136        0.3335    0.6808    0.0624
Li    Li137        0.3330    0.6704    0.9413
Li    Li138        0.4569    0.6333    0.9451
Li    Li139        0.2928    0.6838    0.9283
Li    Li140        0.2907    0.7748    0.1755
Li    Li141        0.4492    0.7235    0.0577
Li    Li142        0.3304    0.7841    0.0702
Li    Li143        0.2960    0.7695    0.3116
Li    Li144        0.2969    0.7780    0.9353
Li    Li145        0.3242    0.7829    0.8111
Li    Li146        0.4291    0.7129    0.9399
Li    Li147        0.2883    0.8746    0.0502
Li    Li148        0.3288    0.8913    0.0627
Li    Li149        0.3308    0.8648    0.9433
Li    Li150        0.4581    0.8236    0.9468
Li    Li151        0.3029    0.8843    0.9368
Li    Li152        0.2909    0.9811    0.0579
Li    Li153        0.5444    0.3708    0.6697
Li    Li154        0.5760    0.5666    0.1843
Li    Li155        0.5838    0.5753    0.0741
Li    Li156        0.5816    0.5635    0.9431
Li    Li157        0.5444    0.5786    0.8005
Li    Li158        0.6786    0.6351    0.0630
Li    Li159        0.5719    0.6857    0.0580
Li    Li160        0.7027    0.7168    0.0674
Li    Li161        0.5743    0.7662    0.9368
Li    Li162        0.5501    0.7899    0.9378
Li    Li163        0.6742    0.8383    0.0641
Li    Li164        0.7057    0.8156    0.0676
Li    Li165        0.7926    0.5824    0.0548
Li    Li166        0.8315    0.6728    0.1955
Li    Li167        0.9533    0.6302    0.1853
Li    Li168        0.7990    0.6865    0.1833
Li    Li169        0.9542    0.6206    0.0686
Li    Li170        0.9440    0.6328    0.4340
Li    Li171        0.9165    0.6240    0.4336
Li    Li172        0.8325    0.7659    0.1933
Li    Li173        0.9446    0.7399    0.1906
Li    Li174        0.7938    0.7630    0.0588
Li    Li175        0.7954    0.7838    0.1845
Li    Li176        0.9596    0.7262    0.0657
Li    Li177        0.9182    0.7175    0.1781
Li    Li178        0.9583    0.7183    0.3157
Li    Li179        0.9320    0.8367    0.0661
Li    Li180        0.9603    0.8311    0.1954
Li    Li181        0.9484    0.8156    0.0599
Li    Li182        0.9618    0.9155    0.9533
Li    Li183        0.9253    0.9146    0.9371
Li    Li184        0.2440    0.0083    0.0695
Li    Li185        0.1249    0.0108    0.1766
Li    Li186        0.1282    0.0117    0.4291
Li    Li187        0.1271    0.0129    0.9291
Li    Li188        0.2437    0.1074    0.0715
Li    Li189        0.1210    0.3592    0.9476
Li    Li190        0.1394    0.3061    0.9379
Li    Li191        0.2429    0.4103    0.0658
Li    Li192        0.0063    0.4917    0.4315
Li    Li193        0.1294    0.4487    0.5510
Li    Li194        0.2438    0.4412    0.6974
Li    Li195        0.2402    0.4081    0.5732
Li    Li196        0.1194    0.4910    0.5685
Li    Li197        0.1312    0.4135    0.6802
Li    Li198        0.1238    0.5600    0.4433
Li    Li199        0.2450    0.5420    0.4451
Li    Li200        0.0052    0.5954    0.4307
Li    Li201        0.1310    0.5059    0.4287
Li    Li202        0.2407    0.5422    0.6926
Li    Li203        0.2449    0.5149    0.5702
Li    Li204        0.1181    0.5954    0.5716
Li    Li205        0.2465    0.5370    0.9398
Li    Li206        0.0052    0.6871    0.1787
Li    Li207        0.2451    0.6094    0.0692
Li    Li208        0.1196    0.6575    0.4472
Li    Li209        0.1194    0.6928    0.3191
Li    Li210        0.1301    0.6120    0.4273
Li    Li211        0.2439    0.6111    0.5735
Li    Li212        0.1312    0.6127    0.6835
Li    Li213        0.1224    0.7578    0.1968
Li    Li214        0.0043    0.7567    0.0555
Li    Li215        0.9959    0.7918    0.1813
Li    Li216        0.1289    0.7059    0.1839
Li    Li217        0.2453    0.7075    0.3219
Li    Li218        0.1291    0.7091    0.4303
Li    Li219        0.2404    0.7418    0.9388
Li    Li220        0.2410    0.8348    0.1938
Li    Li221        0.2465    0.8072    0.0703
Li    Li222        0.1238    0.8582    0.4367
Li    Li223        0.2467    0.8112    0.3237
Li    Li224        0.1170    0.8887    0.3192
Li    Li225        0.2529    0.8355    0.9418
Li    Li226        0.0086    0.9605    0.0512
Li    Li227        0.1157    0.9937    0.3187
Li    Li228        0.2418    0.9440    0.9418
Li    Li229        0.0125    0.9874    0.9288
Li    Li230        0.2582    0.0565    0.0569
Li    Li231        0.3663    0.3600    0.6954
Li    Li232        0.4947    0.3421    0.6986
Li    Li233        0.2570    0.4607    0.0558
Li    Li234        0.3704    0.4568    0.6936
Li    Li235        0.2579    0.4927    0.6795
Li    Li236        0.4989    0.4166    0.5694
Li    Li237        0.3799    0.4058    0.6824
Li    Li238        0.2530    0.4914    0.9261
Li    Li239        0.2567    0.5600    0.0530
Li    Li240        0.4920    0.5093    0.0691
Li    Li241        0.2588    0.5554    0.5555
Li    Li242        0.2578    0.5820    0.6798
Li    Li243        0.4965    0.5540    0.9594
Li    Li244        0.4948    0.5122    0.8220
Li    Li245        0.2568    0.6535    0.0591
Li    Li246        0.3665    0.6611    0.9428
Li    Li247        0.4909    0.6317    0.9399
Li    Li248        0.3873    0.6126    0.9360
Li    Li249        0.2554    0.7937    0.1828
Li    Li250        0.4981    0.7141    0.0709
Li    Li251        0.3679    0.7933    0.0703
Li    Li252        0.2549    0.7593    0.3069
Li    Li253        0.3783    0.7567    0.9396
Li    Li254        0.2547    0.7911    0.9279
Li    Li255        0.3703    0.7829    0.8194
Li    Li256        0.3856    0.7086    0.9316
Li    Li257        0.2534    0.8572    0.0561
Li    Li258        0.2559    0.8532    0.3104
Li    Li259        0.4962    0.8368    0.9382
Li    Li260        0.2620    0.8947    0.9348
Li    Li261        0.3851    0.9446    0.0566
Li    Li262        0.2563    0.9607    0.0534
Li    Li263        0.2588    0.9819    0.4304
Li    Li264        0.6187    0.3602    0.6936
Li    Li265        0.5088    0.3546    0.5522
Li    Li266        0.5069    0.3878    0.6783
Li    Li267        0.5045    0.4615    0.5563
Li    Li268        0.5074    0.5562    0.0611
Li    Li269        0.6109    0.6017    0.0689
Li    Li270        0.5055    0.5564    0.8042
Li    Li271        0.5050    0.5888    0.9273
Li    Li272        0.6290    0.6426    0.0582
Li    Li273        0.7459    0.6363    0.1943
Li    Li274        0.6196    0.6877    0.0710
Li    Li275        0.6304    0.7388    0.0541
Li    Li276        0.7421    0.7143    0.0666
Li    Li277        0.5140    0.7992    0.9381
Li    Li278        0.9951    0.0357    0.9482
Li    Li279        0.8669    0.5678    0.1978
Li    Li280        0.7566    0.5575    0.0533
Li    Li281        0.8741    0.6599    0.1963
Li    Li282        0.9936    0.6438    0.1948
Li    Li283        0.7547    0.6856    0.1756
Li    Li284        0.9934    0.6105    0.0693
Li    Li285        0.8796    0.6128    0.1865
Li    Li286        0.8652    0.7597    0.1916
Li    Li287        0.7524    0.7591    0.0524
Li    Li288        0.8774    0.7093    0.1753
Li    Li289        0.9988    0.7153    0.3169
Li    Li290        0.9908    0.8054    0.0710
Li    Li291        0.8886    0.8133    0.1769
Li    Li292        0.9921    0.9098    0.0654
Li    Li293        0.9943    0.9123    0.3188
Li    Li294        0.8801    0.9180    0.9288
Li    Li295        0.2073    0.0056    0.1092
Li    Li296        0.0841    0.0541    0.4807
Li    Li297        0.2053    0.0439    0.4788
Li    Li298        0.1618    0.0014    0.3915
Li    Li299        0.2115    0.0035    0.8550
Li    Li300        0.0861    0.3614    0.9817
Li    Li301        0.2042    0.4382    0.9812
Li    Li302        0.0451    0.5557    0.5226
Li    Li303        0.0385    0.6978    0.1459
Li    Li304        0.1596    0.6010    0.3923
Li    Li305        0.0863    0.7929    0.1076
Li    Li306        0.1700    0.7390    0.5189
Li    Li307        0.0357    0.8566    0.2668
Li    Li308        0.0430    0.9533    0.0186
Li    Li309        0.1632    0.9071    0.3936
Li    Li310        0.0892    0.9568    0.9842
Li    Li311        0.2161    0.9456    0.9813
Li    Li312        0.2905    0.1610    0.0165
Li    Li313        0.3326    0.3965    0.1060
Li    Li314        0.4625    0.3449    0.7295
Li    Li315        0.2875    0.4001    0.6425
Li    Li316        0.3315    0.4574    0.7326
Li    Li317        0.2912    0.4946    0.6465
Li    Li318        0.3348    0.5560    0.9818
Li    Li319        0.4551    0.6437    0.9782
Li    Li320        0.4603    0.6036    0.8545
Li    Li321        0.4146    0.7417    0.0169
Li    Li322        0.2885    0.8539    0.0139
Li    Li323        0.4158    0.8052    0.8973
Li    Li324        0.2902    0.9967    0.3959
Li    Li325        0.5395    0.3951    0.6433
Li    Li326        0.5418    0.5938    0.8994
Li    Li327        0.5380    0.6574    0.0184
Li    Li328        0.9623    0.7507    0.2331
Li    Li329        0.1177    0.0108    0.0964
Li    Li330        0.1226    0.0474    0.2204
Li    Li331        0.1168    0.0049    0.3424
Li    Li332        0.1184    0.0429    0.4684
Li    Li333        0.1314    0.2947    0.9086
Li    Li334        0.2416    0.3901    0.0847
Li    Li335        0.2434    0.3949    0.5951
Li    Li336        0.1339    0.3953    0.6595
Li    Li337        0.2458    0.3577    0.7177
Li    Li338        0.1271    0.3959    0.9067
Li    Li339        0.1247    0.3419    0.9716
Li    Li340        0.1266    0.4489    0.0297
Li    Li341        0.2457    0.4943    0.5883
Li    Li342        0.1167    0.4100    0.5898
Li    Li343        0.2441    0.4569    0.7170
Li    Li344        0.0028    0.4497    0.5321
Li    Li345        0.2498    0.4503    0.9665
Li    Li346        0.0080    0.5070    0.4112
Li    Li347        0.2452    0.5956    0.5933
Li    Li348        0.1300    0.5985    0.6581
Li    Li349        0.1276    0.5576    0.5296
Li    Li350        0.2423    0.5524    0.7165
Li    Li351        0.2521    0.5511    0.9649
Li    Li352        0.0038    0.6063    0.1573
Li    Li353        0.1224    0.6455    0.2237
Li    Li354        0.0036    0.6431    0.0329
Li    Li355        0.0108    0.6073    0.4087
Li    Li356        0.2440    0.6954    0.3443
Li    Li357        0.1236    0.5998    0.3515
Li    Li358        0.1267    0.6961    0.4040
Li    Li359        0.1260    0.6531    0.2865
Li    Li360        0.1189    0.6466    0.4706
Li    Li361        0.2426    0.6538    0.4718
Li    Li362        0.0066    0.6487    0.2794
Li    Li363        0.1228    0.6092    0.5975
Li    Li364        0.1320    0.6940    0.9074
Li    Li365        0.0021    0.7033    0.1541
Li    Li366        0.2383    0.7955    0.0989
Li    Li367        0.1346    0.7886    0.1575
Li    Li368        0.2417    0.7568    0.2149
Li    Li369        0.0079    0.7440    0.0301
Li    Li370        0.2512    0.7954    0.3441
Li    Li371        0.1208    0.7067    0.3407
Li    Li372        0.1184    0.7424    0.4674
Li    Li373        0.0035    0.7489    0.2811
Li    Li374        0.1324    0.7535    0.5262
Li    Li375        0.0030    0.8086    0.1591
Li    Li376        0.1271    0.8058    0.0946
Li    Li377        0.2434    0.8537    0.2229
Li    Li378        0.2422    0.8931    0.3413
Li    Li379        0.1287    0.8935    0.4043
Li    Li380        0.2556    0.8503    0.9678
Li    Li381        0.1304    0.9959    0.1554
Li    Li382        0.1287    0.9564    0.0293
Li    Li383        0.1160    0.9036    0.3439
Li    Li384        0.1267    0.9940    0.4061
Li    Li385        0.1232    0.9527    0.2798
Li    Li386        0.2467    0.9536    0.4679
Li    Li387        0.0071    0.9425    0.2866
Li    Li388        0.1248    0.9935    0.9076
Li    Li389        0.1239    0.9475    0.9661
Li    Li390        0.2549    0.1451    0.0314
Li    Li391        0.4976    0.3928    0.5937
Li    Li392        0.3710    0.3932    0.6605
Li    Li393        0.3641    0.3452    0.7154
Li    Li394        0.4952    0.4930    0.0953
Li    Li395        0.3664    0.4082    0.0922
Li    Li396        0.2586    0.4369    0.0305
Li    Li397        0.2623    0.4087    0.6640
Li    Li398        0.4954    0.4945    0.5947
Li    Li399        0.2489    0.4501    0.5385
Li    Li400        0.3723    0.4954    0.9119
Li    Li401        0.3731    0.4512    0.7832
Li    Li402        0.2582    0.5423    0.0299
Li    Li403        0.2553    0.5068    0.4137
Li    Li404        0.2558    0.5055    0.6532
Li    Li405        0.2578    0.5024    0.9033
Li    Li406        0.4976    0.5922    0.8400
Li    Li407        0.3723    0.5051    0.8414
Li    Li408        0.3776    0.5596    0.7835
Li    Li409        0.3711    0.5477    0.9686
Li    Li410        0.5004    0.6974    0.0959
Li    Li411        0.3830    0.6589    0.0317
Li    Li412        0.2563    0.6409    0.0355
Li    Li413        0.2507    0.6095    0.6576
Li    Li414        0.2502    0.6424    0.5283
Li    Li415        0.3778    0.6947    0.9057
Li    Li416        0.3745    0.7529    0.0335
Li    Li417        0.2553    0.7459    0.2848
Li    Li418        0.2536    0.7059    0.9031
Li    Li419        0.3839    0.7934    0.9098
Li    Li420        0.3857    0.7559    0.7822
Li    Li421        0.3703    0.7415    0.9661
Li    Li422        0.2539    0.8034    0.1579
Li    Li423        0.3644    0.8077    0.0968
Li    Li424        0.2522    0.8464    0.2840
Li    Li425        0.3765    0.8015    0.8472
Li    Li426        0.3777    0.8959    0.9062
Li    Li427        0.3661    0.8439    0.9726
Li    Li428        0.3695    0.9055    0.0893
Li    Li429        0.3791    0.9601    0.0293
Li    Li430        0.2529    0.9090    0.4054
Li    Li431        0.6175    0.3423    0.7223
Li    Li432        0.7469    0.5913    0.0994
Li    Li433        0.6237    0.5922    0.1549
Li    Li434        0.5072    0.5408    0.0312
Li    Li435        0.6289    0.5901    0.9125
Li    Li436        0.5051    0.5417    0.7835
Li    Li437        0.7462    0.6944    0.0935
Li    Li438        0.6245    0.6064    0.0924
Li    Li439        0.6319    0.6568    0.0312
Li    Li440        0.5000    0.6414    0.0301
Li    Li441        0.5016    0.6051    0.9023
Li    Li442        0.7448    0.7971    0.0892
Li    Li443        0.6275    0.7526    0.0285
Li    Li444        0.4989    0.7413    0.0275
Li    Li445        0.5022    0.8018    0.9014
Li    Li446        0.9953    0.5931    0.0963
Li    Li447        0.7589    0.5412    0.0343
Li    Li448        0.8785    0.5940    0.4047
Li    Li449        0.9989    0.5598    0.4659
Li    Li450        0.7554    0.6068    0.1546
Li    Li451        0.9921    0.6949    0.0929
Li    Li452        0.9907    0.6535    0.2281
Li    Li453        0.0015    0.6969    0.3405
Li    Li454        0.7536    0.7044    0.1549
Li    Li455        0.9925    0.7931    0.0940
Li    Li456        0.8731    0.7909    0.1502
Li    Li457        0.7626    0.8102    0.1611
Li    Li458        0.9997    0.8901    0.0871
Li    Li459        0.8756    0.8421    0.2180
Li    Li460        0.9965    0.8995    0.3438
Li    Li461        0.8789    0.8924    0.9102
Li    Li462        0.8782    0.9526    0.0324
Li    Li463        0.8778    0.9466    0.9671
Li    Li464        0.0023    0.9502    0.9638
