data_max_cluster
_audit_creation_method         'generated by data2config v5.5c'
 
_cell_length_a                  84.92680
_cell_length_b                  87.57400
_cell_length_c                  75.14280
_cell_angle_alpha               90.00000
_cell_angle_beta                96.73700
_cell_angle_gamma               90.00000
 
loop_
_symmetry_equiv_pos_as_xyz
'+x,+y,+z'
 
loop_
_atom_site_type_symbol
_atom_site_label
_atom_site_fract_x
_atom_site_fract_y
_atom_site_fract_z
Li    Li1        0.2093    0.6363    0.7857
Li    Li2        0.1594    0.6105    0.8355
Li    Li3        0.3298    0.4978    0.9102
Li    Li4        0.4549    0.5390    0.0336
Li    Li5        0.3386    0.5590    0.0362
Li    Li6        0.2933    0.5525    0.9663
Li    Li7        0.4127    0.6110    0.0904
Li    Li8        0.4623    0.6126    0.1592
Li    Li9        0.4053    0.6382    0.9569
Li    Li10        0.3339    0.6572    0.7848
Li    Li11        0.3485    0.6878    0.9182
Li    Li12        0.4607    0.6100    0.9087
Li    Li13        0.4587    0.7092    0.6651
Li    Li14        0.3357    0.7655    0.7851
Li    Li15        0.3383    0.7895    0.9074
Li    Li16        0.4580    0.7086    0.9060
Li    Li17        0.7129    0.5358    0.0325
Li    Li18        0.5863    0.5870    0.1620
Li    Li19        0.6642    0.7097    0.0864
Li    Li20        0.6686    0.8096    0.0887
Li    Li21        0.6601    0.8336    0.9659
Li    Li22        0.5868    0.8586    0.7862
Li    Li23        0.5865    0.8908    0.9139
Li    Li24        0.6644    0.9137    0.8406
Li    Li25        0.7097    0.9091    0.9107
Li    Li26        0.2090    0.6296    0.8220
Li    Li27        0.2940    0.4885    0.9399
Li    Li28        0.4209    0.5409    0.0503
Li    Li29        0.4568    0.5271    0.9465
Li    Li30        0.4200    0.5165    0.9351
Li    Li31        0.4293    0.6362    0.0586
Li    Li32        0.4621    0.6325    0.1961
Li    Li33        0.4511    0.6129    0.0615
Li    Li34        0.4236    0.6169    0.1844
Li    Li35        0.3213    0.6628    0.6865
Li    Li36        0.4445    0.6419    0.6855
Li    Li37        0.2972    0.6838    0.6793
Li    Li38        0.4263    0.6294    0.8096
Li    Li39        0.3302    0.6776    0.9471
Li    Li40        0.4526    0.6320    0.9396
Li    Li41        0.4166    0.6192    0.9252
Li    Li42        0.4484    0.7382    0.6846
Li    Li43        0.4182    0.7305    0.6795
Li    Li44        0.3342    0.7657    0.9371
Li    Li45        0.3225    0.7836    0.8102
Li    Li46        0.4192    0.7183    0.9310
Li    Li47        0.4491    0.8344    0.6877
Li    Li48        0.4610    0.8375    0.9402
Li    Li49        0.4595    0.8194    0.8167
Li    Li50        0.6839    0.5350    0.0642
Li    Li51        0.5760    0.5674    0.1919
Li    Li52        0.5466    0.5820    0.1817
Li    Li53        0.5739    0.5594    0.9391
Li    Li54        0.5418    0.5846    0.9286
Li    Li55        0.5472    0.6833    0.6853
Li    Li56        0.5397    0.6771    0.9245
Li    Li57        0.6724    0.8324    0.0545
Li    Li58        0.7045    0.8343    0.9368
Li    Li59        0.5546    0.8612    0.8121
Li    Li60        0.5422    0.8777    0.9279
Li    Li61        0.5839    0.8807    0.8199
Li    Li62        0.6699    0.8175    0.9290
Li    Li63        0.5762    0.9797    0.0626
Li    Li64        0.7019    0.9167    0.9340
Li    Li65        0.7004    0.9160    0.8142
Li    Li66        0.6713    0.9197    0.9264
Li    Li67        0.8030    0.5589    0.0553
Li    Li68        0.2429    0.5385    0.9416
Li    Li69        0.2578    0.4951    0.9342
Li    Li70        0.3826    0.5422    0.0555
Li    Li71        0.4942    0.5416    0.1922
Li    Li72        0.3748    0.5850    0.0678
Li    Li73        0.4928    0.5451    0.9420
Li    Li74        0.3811    0.6430    0.0587
Li    Li75        0.4960    0.6386    0.1972
Li    Li76        0.4956    0.6110    0.0716
Li    Li77        0.3658    0.6587    0.6970
Li    Li78        0.4885    0.6388    0.6913
Li    Li79        0.2573    0.6937    0.6782
Li    Li80        0.3839    0.6192    0.6790
Li    Li81        0.3812    0.6415    0.8038
Li    Li82        0.4946    0.6326    0.9439
Li    Li83        0.2591    0.6515    0.8100
Li    Li84        0.3763    0.6064    0.9300
Li    Li85        0.4874    0.7526    0.6877
Li    Li86        0.3809    0.7096    0.6801
Li    Li87        0.3650    0.7913    0.8169
Li    Li88        0.3874    0.7057    0.9393
Li    Li89        0.4943    0.8131    0.8195
Li    Li90        0.6156    0.4861    0.0699
Li    Li91        0.5069    0.4934    0.9312
Li    Li92        0.6297    0.5355    0.0603
Li    Li93        0.5056    0.5881    0.1804
Li    Li94        0.5116    0.5541    0.3057
Li    Li95        0.6162    0.5596    0.9436
Li    Li96        0.5061    0.5891    0.9313
Li    Li97        0.6313    0.6431    0.0562
Li    Li98        0.6188    0.6879    0.0702
Li    Li99        0.5050    0.6894    0.6810
Li    Li100        0.4995    0.6929    0.9256
Li    Li101        0.6398    0.7379    0.0563
Li    Li102        0.4972    0.7605    0.8015
Li    Li103        0.6373    0.8367    0.8073
Li    Li104        0.7433    0.8435    0.9457
Li    Li105        0.5101    0.8510    0.8073
Li    Li106        0.5042    0.8858    0.9315
Li    Li107        0.6216    0.8936    0.8228
Li    Li108        0.6321    0.8108    0.9323
Li    Li109        0.6175    0.9909    0.0707
Li    Li110        0.6351    0.9079    0.9286
Li    Li111        0.7613    0.8935    0.9345
Li    Li112        0.3361    0.5548    0.9794
Li    Li113        0.4636    0.6046    0.1065
Li    Li114        0.3349    0.6552    0.7313
Li    Li115        0.2881    0.6574    0.7685
Li    Li116        0.4604    0.6390    0.9777
Li    Li117        0.3306    0.6911    0.8565
Li    Li118        0.3394    0.7962    0.8590
Li    Li119        0.5902    0.5556    0.9834
Li    Li120        0.5390    0.5996    0.8987
Li    Li121        0.6639    0.8438    0.0153
Li    Li122        0.6628    0.8032    0.1401
Li    Li123        0.5826    0.8580    0.7302
Li    Li124        0.5411    0.8545    0.7705
Li    Li125        0.7141    0.8480    0.9828
Li    Li126        0.2391    0.5881    0.8467
Li    Li127        0.2382    0.5592    0.9675
Li    Li128        0.1166    0.6056    0.8453
Li    Li129        0.3764    0.5002    0.9100
Li    Li130        0.3801    0.5937    0.1566
Li    Li131        0.3809    0.5541    0.0322
Li    Li132        0.4941    0.5534    0.2200
Li    Li133        0.4984    0.5959    0.8452
Li    Li134        0.3807    0.5956    0.9069
Li    Li135        0.3710    0.5492    0.9650
Li    Li136        0.3803    0.6539    0.0350
Li    Li137        0.2575    0.6019    0.9032
Li    Li138        0.3698    0.6112    0.8443
Li    Li139        0.3823    0.6552    0.7827
Li    Li140        0.3722    0.6467    0.9675
Li    Li141        0.2519    0.6365    0.7800
Li    Li142        0.4870    0.7630    0.7172
Li    Li143        0.4917    0.7929    0.8469
Li    Li144        0.3866    0.7909    0.9055
Li    Li145        0.3665    0.7416    0.9623
Li    Li146        0.4925    0.8518    0.7203
Li    Li147        0.4871    0.8582    0.9631
Li    Li148        0.6184    0.0051    0.0920
Li    Li149        0.6289    0.4617    0.0330
Li    Li150        0.5085    0.5059    0.1543
Li    Li151        0.6315    0.5946    0.1551
Li    Li152        0.6313    0.5630    0.0335
Li    Li153        0.4980    0.5468    0.0212
Li    Li154        0.5137    0.5416    0.2831
Li    Li155        0.6254    0.5464    0.9722
Li    Li156        0.6190    0.6048    0.0928
Li    Li157        0.5043    0.6408    0.0359
Li    Li158        0.4966    0.6006    0.6577
Li    Li159        0.5061    0.6054    0.9112
Li    Li160        0.6138    0.7056    0.0927
Li    Li161        0.6254    0.7972    0.8985
Li    Li162        0.5129    0.7473    0.7722
Li    Li163        0.6225    0.8048    0.8419
Li    Li164        0.6270    0.8929    0.9045
Li    Li165        0.6269    0.8551    0.7833
Li    Li166        0.7439    0.8582    0.9665
Li    Li167        0.5090    0.8409    0.7833
Li    Li168        0.6274    0.9514    0.0322
Li    Li169        0.6195    0.9422    0.9695
Li    Li170        0.7551    0.5445    0.0291
