data_max_cluster
_audit_creation_method         'generated by data2config v5.5c'
 
_cell_length_a                  84.92680
_cell_length_b                  87.57400
_cell_length_c                  75.14280
_cell_angle_alpha               90.00000
_cell_angle_beta                96.73700
_cell_angle_gamma               90.00000
 
loop_
_symmetry_equiv_pos_as_xyz
'+x,+y,+z'
 
loop_
_atom_site_type_symbol
_atom_site_label
_atom_site_fract_x
_atom_site_fract_y
_atom_site_fract_z
Li    Li1        0.0403    0.0811    0.8443
Li    Li2        0.1621    0.1402    0.7134
Li    Li3        0.0831    0.1541    0.7833
Li    Li4        0.0335    0.2614    0.7130
Li    Li5        0.2066    0.2078    0.6591
Li    Li6        0.2108    0.2408    0.7872
Li    Li7        0.0352    0.2950    0.8343
Li    Li8        0.2050    0.3476    0.7790
Li    Li9        0.1686    0.5080    0.5889
Li    Li10        0.2854    0.0922    0.8328
Li    Li11        0.2786    0.1586    0.7069
Li    Li12        0.3345    0.1922    0.6623
Li    Li13        0.2878    0.1630    0.9664
Li    Li14        0.4218    0.1108    0.8429
Li    Li15        0.2918    0.1929    0.8390
Li    Li16        0.2888    0.2893    0.0920
Li    Li17        0.4182    0.2456    0.4665
Li    Li18        0.3359    0.2595    0.5357
Li    Li19        0.4587    0.2450    0.7801
Li    Li20        0.4548    0.3421    0.0327
Li    Li21        0.2937    0.3668    0.4570
Li    Li22        0.2817    0.3639    0.7139
Li    Li23        0.4197    0.3363    0.7147
Li    Li24        0.3345    0.3576    0.5324
Li    Li25        0.3373    0.3964    0.6630
Li    Li26        0.4113    0.3090    0.5897
Li    Li27        0.4177    0.3403    0.9655
Li    Li28        0.2800    0.4617    0.4607
Li    Li29        0.3339    0.4666    0.7844
Li    Li30        0.4119    0.5146    0.3426
Li    Li31        0.3340    0.6937    0.1607
Li    Li32        0.4548    0.6407    0.2819
Li    Li33        0.3457    0.6612    0.2906
Li    Li34        0.4058    0.6108    0.3398
Li    Li35        0.5841    0.1857    0.1646
Li    Li36        0.5871    0.1611    0.2811
Li    Li37        0.5412    0.1613    0.9670
Li    Li38        0.5851    0.2567    0.0359
Li    Li39        0.5381    0.2881    0.0877
Li    Li40        0.5878    0.2623    0.2927
Li    Li41        0.5867    0.2872    0.4194
Li    Li42        0.5813    0.2666    0.5334
Li    Li43        0.5834    0.2603    0.7850
Li    Li44        0.6655    0.2106    0.8370
Li    Li45        0.6638    0.3167    0.3383
Li    Li46        0.5371    0.3597    0.7048
Li    Li47        0.5860    0.3588    0.5357
Li    Li48        0.5889    0.3934    0.6592
Li    Li49        0.5806    0.5931    0.1642
Li    Li50        0.8361    0.1843    0.9101
Li    Li51        0.7804    0.1890    0.8301
Li    Li52        0.9108    0.2343    0.7074
Li    Li53        0.9210    0.3332    0.7193
Li    Li54        0.8400    0.3901    0.6664
Li    Li55        0.9655    0.5348    0.5326
Li    Li56        0.0570    0.0619    0.8147
Li    Li57        0.2067    0.1256    0.0769
Li    Li58        0.1750    0.1163    0.6876
Li    Li59        0.1669    0.1266    0.8053
Li    Li60        0.0426    0.1780    0.8088
Li    Li61        0.1933    0.1156    0.8129
Li    Li62        0.2100    0.2230    0.7000
Li    Li63        0.0480    0.2912    0.6890
Li    Li64        0.1785    0.2311    0.8127
Li    Li65        0.0359    0.2821    0.8044
Li    Li66        0.0626    0.2925    0.8108
Li    Li67        0.1968    0.3335    0.6877
Li    Li68        0.0445    0.3857    0.6848
Li    Li69        0.2000    0.3399    0.9388
Li    Li70        0.2047    0.4375    0.6885
Li    Li71        0.2043    0.5259    0.5710
Li    Li72        0.3261    0.1677    0.6929
Li    Li73        0.2923    0.1852    0.6854
Li    Li74        0.4252    0.1384    0.8097
Li    Li75        0.3308    0.1672    0.9457
Li    Li76        0.4576    0.1257    0.9421
Li    Li77        0.2929    0.1844    0.9321
Li    Li78        0.4603    0.1299    0.8219
Li    Li79        0.3319    0.1870    0.8174
Li    Li80        0.2919    0.2860    0.0559
Li    Li81        0.3262    0.2856    0.0624
Li    Li82        0.3268    0.2711    0.4411
Li    Li83        0.4639    0.2242    0.4472
Li    Li84        0.4133    0.2130    0.4251
Li    Li85        0.4202    0.2317    0.5526
Li    Li86        0.4570    0.2250    0.6911
Li    Li87        0.4252    0.2350    0.8096
Li    Li88        0.3324    0.2630    0.9403
Li    Li89        0.2903    0.2779    0.8087
Li    Li90        0.2909    0.2767    0.9291
Li    Li91        0.4434    0.2145    0.8132
Li    Li92        0.3263    0.2808    0.8180
Li    Li93        0.4164    0.3250    0.0552
Li    Li94        0.4497    0.3156    0.0612
Li    Li95        0.3336    0.3717    0.4425
Li    Li96        0.2978    0.3836    0.4351
Li    Li97        0.4583    0.3145    0.3165
Li    Li98        0.4264    0.3359    0.5604
Li    Li99        0.3295    0.3700    0.6859
Li    Li100        0.4545    0.3336    0.6881
Li    Li101        0.2959    0.3664    0.5547
Li    Li102        0.4570    0.3215    0.5675
Li    Li103        0.4198    0.3161    0.6772
Li    Li104        0.2963    0.3663    0.8018
Li    Li105        0.3272    0.3908    0.8114
Li    Li106        0.4327    0.3151    0.9423
Li    Li107        0.3339    0.4746    0.4500
Li    Li108        0.4564    0.4208    0.4486
Li    Li109        0.4562    0.4185    0.3190
Li    Li110        0.3322    0.4835    0.3198
Li    Li111        0.4268    0.4355    0.5616
Li    Li112        0.3247    0.4708    0.6907
Li    Li113        0.2910    0.4686    0.6778
Li    Li114        0.4535    0.4193    0.5637
Li    Li115        0.2919    0.4745    0.8064
Li    Li116        0.4534    0.5118    0.3094
Li    Li117        0.4228    0.5116    0.4325
Li    Li118        0.3335    0.6656    0.1949
Li    Li119        0.4183    0.6330    0.3057
Li    Li120        0.4582    0.6178    0.3194
Li    Li121        0.5529    0.1674    0.0700
Li    Li122        0.5845    0.1831    0.0746
Li    Li123        0.6705    0.1299    0.3012
Li    Li124        0.5819    0.1725    0.9460
Li    Li125        0.5779    0.2840    0.0666
Li    Li126        0.5513    0.2647    0.3152
Li    Li127        0.5586    0.2892    0.4387
Li    Li128        0.5805    0.2650    0.6977
Li    Li129        0.5401    0.2677    0.5588
Li    Li130        0.5444    0.2826    0.6859
Li    Li131        0.6693    0.2316    0.8033
Li    Li132        0.5499    0.2588    0.8152
Li    Li133        0.5464    0.2824    0.9382
Li    Li134        0.7054    0.2227    0.8159
Li    Li135        0.6707    0.3285    0.5548
Li    Li136        0.5745    0.3662    0.6813
Li    Li137        0.5399    0.3656    0.5653
Li    Li138        0.7016    0.3162    0.5625
Li    Li139        0.5781    0.3854    0.5622
Li    Li140        0.5703    0.4583    0.1920
Li    Li141        0.5569    0.4808    0.1914
Li    Li142        0.5420    0.4675    0.3050
Li    Li143        0.6618    0.5213    0.0517
Li    Li144        0.5563    0.5900    0.1906
Li    Li145        0.8221    0.1660    0.9464
Li    Li146        0.8016    0.1831    0.9374
Li    Li147        0.8209    0.2617    0.6858
Li    Li148        0.9563    0.2329    0.6948
Li    Li149        0.8074    0.2906    0.6911
Li    Li150        0.8272    0.3639    0.6907
Li    Li151        0.7910    0.3682    0.6778
Li    Li152        0.9258    0.3315    0.8047
Li    Li153        0.9254    0.5351    0.5678
Li    Li154        0.9627    0.5218    0.5739
Li    Li155        0.1185    0.0856    0.8264
Li    Li156        0.2455    0.1086    0.0686
Li    Li157        0.2392    0.1405    0.6951
Li    Li158        0.0047    0.1896    0.6804
Li    Li159        0.1266    0.1439    0.8084
Li    Li160        0.0073    0.1546    0.8095
Li    Li161        0.2411    0.1152    0.8213
Li    Li162        0.2423    0.2063    0.0711
Li    Li163        0.1317    0.2152    0.6802
Li    Li164        0.1286    0.2380    0.8038
Li    Li165        0.1207    0.2887    0.8207
Li    Li166        0.2360    0.3464    0.4386
Li    Li167        0.2425    0.3355    0.6956
Li    Li168        0.9980    0.3898    0.6812
Li    Li169        0.1313    0.3363    0.8071
Li    Li170        0.2427    0.3372    0.9455
Li    Li171        0.2440    0.4412    0.6935
Li    Li172        0.0082    0.4594    0.5532
Li    Li173        0.2450    0.5090    0.5701
Li    Li174        0.2475    0.6362    0.1975
Li    Li175        0.2560    0.0580    0.8004
Li    Li176        0.3654    0.0940    0.8183
Li    Li177        0.2538    0.1604    0.0531
Li    Li178        0.4919    0.1418    0.9458
Li    Li179        0.2560    0.1649    0.8066
Li    Li180        0.4950    0.1157    0.8193
Li    Li181        0.3674    0.1864    0.8223
Li    Li182        0.3789    0.1138    0.9283
Li    Li183        0.2541    0.2600    0.0560
Li    Li184        0.3697    0.2970    0.0743
Li    Li185        0.3703    0.2582    0.4401
Li    Li186        0.3839    0.2024    0.6816
Li    Li187        0.3700    0.2910    0.8182
Li    Li188        0.3783    0.3361    0.0554
Li    Li189        0.3665    0.3596    0.4435
Li    Li190        0.4944    0.3105    0.3199
Li    Li191        0.3797    0.3408    0.5529
Li    Li192        0.4942    0.3437    0.6918
Li    Li193        0.3695    0.4013    0.8352
Li    Li194        0.3849    0.3114    0.9351
Li    Li195        0.3717    0.4595    0.4459
Li    Li196        0.4973    0.4434    0.4457
Li    Li197        0.4943    0.4103    0.3152
Li    Li198        0.3676    0.4937    0.3218
Li    Li199        0.3698    0.4660    0.7016
Li    Li200        0.4921    0.4082    0.5640
Li    Li201        0.3783    0.4070    0.6846
Li    Li202        0.3823    0.4438    0.8060
Li    Li203        0.4934    0.5389    0.1954
Li    Li204        0.4923    0.5150    0.3227
Li    Li205        0.3705    0.5862    0.3255
Li    Li206        0.3827    0.5117    0.4287
Li    Li207        0.4858    0.6393    0.1891
Li    Li208        0.2603    0.6822    0.1845
Li    Li209        0.3787    0.6109    0.1832
Li    Li210        0.3848    0.6403    0.3061
Li    Li211        0.4946    0.6015    0.3202
Li    Li212        0.6194    0.1574    0.1961
Li    Li213        0.6253    0.1919    0.0677
Li    Li214        0.6186    0.1541    0.9457
Li    Li215        0.5058    0.1632    0.8036
Li    Li216        0.6337    0.2447    0.0604
Li    Li217        0.5087    0.2649    0.0521
Li    Li218        0.6195    0.2890    0.0707
Li    Li219        0.5052    0.2668    0.3019
Li    Li220        0.5033    0.2939    0.4305
Li    Li221        0.5079    0.2581    0.5594
Li    Li222        0.5089    0.2920    0.6812
Li    Li223        0.6320    0.2437    0.8082
Li    Li224        0.5060    0.2609    0.8059
Li    Li225        0.5044    0.2923    0.9351
Li    Li226        0.6331    0.3380    0.5527
Li    Li227        0.7473    0.3344    0.6902
Li    Li228        0.4987    0.3558    0.5579
Li    Li229        0.5072    0.3970    0.6814
Li    Li230        0.7455    0.3085    0.5707
Li    Li231        0.6186    0.4565    0.1940
Li    Li232        0.5015    0.4889    0.1775
Li    Li233        0.5058    0.4587    0.3005
Li    Li234        0.5033    0.5919    0.1819
Li    Li235        0.6202    0.5889    0.0758
Li    Li236        0.5062    0.5614    0.3055
Li    Li237        0.9974    0.1384    0.6949
Li    Li238        0.9964    0.2365    0.6967
Li    Li239        0.7560    0.2927    0.6770
Li    Li240        0.8801    0.2058    0.6802
Li    Li241        0.9910    0.2116    0.8202
Li    Li242        0.9944    0.3362    0.6928
Li    Li243        0.9956    0.4105    0.5637
Li    Li244        0.9976    0.5099    0.5735
Li    Li245        0.0878    0.0938    0.8545
Li    Li246        0.2062    0.1452    0.7276
Li    Li247        0.0441    0.1607    0.7701
Li    Li248        0.1650    0.2082    0.6426
Li    Li249        0.1618    0.3428    0.7673
Li    Li250        0.2082    0.3129    0.8536
Li    Li251        0.3374    0.1547    0.7323
Li    Li252        0.4588    0.1428    0.9806
Li    Li253        0.2890    0.2611    0.7702
Li    Li254        0.3391    0.2904    0.8585
Li    Li255        0.4605    0.3017    0.1056
Li    Li256        0.4141    0.3456    0.5181
Li    Li257        0.2896    0.3590    0.5185
Li    Li258        0.4618    0.4455    0.4842
Li    Li259        0.3326    0.4578    0.7311
Li    Li260        0.4590    0.6408    0.2291
Li    Li261        0.2909    0.6903    0.1459
Li    Li262        0.5854    0.1577    0.2308
Li    Li263        0.5421    0.1639    0.0217
Li    Li264        0.5397    0.1560    0.2681
Li    Li265        0.5885    0.2928    0.3569
Li    Li266        0.5818    0.2921    0.6067
Li    Li267        0.5418    0.3572    0.0221
Li    Li268        0.6726    0.3381    0.5236
Li    Li269        0.7078    0.3439    0.7306
Li    Li270        0.9645    0.5097    0.6101
Li    Li271        0.2420    0.0598    0.7190
Li    Li272        0.2467    0.0978    0.8486
Li    Li273        0.1309    0.0564    0.7838
Li    Li274        0.0001    0.1076    0.6575
Li    Li275        0.2475    0.1928    0.8393
Li    Li276        0.1192    0.1067    0.8436
Li    Li277        0.1279    0.1603    0.7824
Li    Li278        0.0082    0.1446    0.7857
Li    Li279        0.2464    0.2907    0.8463
Li    Li280        0.1224    0.2016    0.8464
Li    Li281        0.1282    0.2558    0.7831
Li    Li282        0.2537    0.2565    0.9688
Li    Li283        0.0040    0.2419    0.7800
Li    Li284        0.2450    0.3553    0.4686
Li    Li285        0.0113    0.3067    0.6575
Li    Li286        0.1244    0.3046    0.8430
Li    Li287        0.1350    0.3568    0.7854
Li    Li288        0.0033    0.4064    0.6573
Li    Li289        0.2445    0.4928    0.5941
Li    Li290        0.2408    0.4519    0.7244
Li    Li291        0.0113    0.4431    0.5320
Li    Li292        0.0041    0.5046    0.6587
Li    Li293        0.1160    0.5073    0.5966
Li    Li294        0.0098    0.5415    0.5364
Li    Li295        0.3767    0.0956    0.8997
Li    Li296        0.2547    0.0455    0.7779
Li    Li297        0.3783    0.1527    0.0287
Li    Li298        0.3753    0.1489    0.7206
Li    Li299        0.4984    0.1571    0.7213
Li    Li300        0.4989    0.1936    0.8461
Li    Li301        0.3700    0.1024    0.8433
Li    Li302        0.3799    0.1552    0.7781
Li    Li303        0.3665    0.1455    0.9663
Li    Li304        0.4972    0.2962    0.0908
Li    Li305        0.2560    0.2402    0.0265
Li    Li306        0.4959    0.2963    0.3411
Li    Li307        0.3695    0.2478    0.4691
Li    Li308        0.5013    0.2577    0.4731
Li    Li309        0.2534    0.2054    0.6567
Li    Li310        0.4917    0.2922    0.5993
Li    Li311        0.3817    0.2940    0.6573
Li    Li312        0.3816    0.2580    0.5342
Li    Li313        0.3688    0.2453    0.7155
Li    Li314        0.4995    0.2540    0.7157
Li    Li315        0.4987    0.2982    0.8475
Li    Li316        0.3782    0.2956    0.9109
Li    Li317        0.3811    0.2594    0.7793
Li    Li318        0.4966    0.2534    0.9647
Li    Li319        0.2526    0.2471    0.7789
Li    Li320        0.3760    0.3537    0.0268
Li    Li321        0.2530    0.3056    0.4098
Li    Li322        0.5028    0.4004    0.3500
Li    Li323        0.3743    0.3537    0.4737
Li    Li324        0.2539    0.3030    0.6535
Li    Li325        0.3681    0.3081    0.5994
Li    Li326        0.3787    0.3612    0.5274
Li    Li327        0.3713    0.3448    0.7219
Li    Li328        0.2485    0.3479    0.5292
Li    Li329        0.2555    0.3073    0.9085
Li    Li330        0.3767    0.2989    0.8438
Li    Li331        0.3673    0.3429    0.9658
Li    Li332        0.5037    0.3609    0.9672
Li    Li333        0.4916    0.4923    0.3423
Li    Li334        0.3790    0.4938    0.4080
Li    Li335        0.3772    0.4581    0.2838
Li    Li336        0.3657    0.4480    0.4753
Li    Li337        0.4907    0.4516    0.4687
Li    Li338        0.2516    0.4065    0.6543
Li    Li339        0.3848    0.4599    0.5332
Li    Li340        0.3680    0.4485    0.7186
Li    Li341        0.3768    0.5929    0.1582
Li    Li342        0.4941    0.5910    0.3438
Li    Li343        0.3703    0.5042    0.3456
Li    Li344        0.2560    0.5052    0.6571
Li    Li345        0.2548    0.5471    0.5295
Li    Li346        0.2584    0.6079    0.1599
Li    Li347        0.3628    0.6398    0.2200
Li    Li348        0.3680    0.6064    0.3444
Li    Li349        0.3782    0.6519    0.2834
Li    Li350        0.6295    0.1968    0.1571
Li    Li351        0.6170    0.1421    0.2211
Li    Li352        0.6270    0.1535    0.2815
Li    Li353        0.7472    0.1982    0.8469
Li    Li354        0.6310    0.1883    0.9070
Li    Li355        0.5037    0.1495    0.7773
Li    Li356        0.6209    0.2037    0.0947
Li    Li357        0.6293    0.2562    0.0330
Li    Li358        0.6272    0.2572    0.2816
Li    Li359        0.5007    0.2068    0.6582
Li    Li360        0.7487    0.2963    0.5934
Li    Li361        0.6369    0.2590    0.5344
Li    Li362        0.7584    0.2637    0.7200
Li    Li363        0.5096    0.2394    0.5350
Li    Li364        0.5095    0.2007    0.9078
Li    Li365        0.6324    0.2558    0.7845
Li    Li366        0.6214    0.2435    0.9698
Li    Li367        0.5030    0.3096    0.1554
Li    Li368        0.5056    0.3477    0.0324
Li    Li369        0.5004    0.3068    0.4037
Li    Li370        0.6174    0.3092    0.3406
Li    Li371        0.5091    0.3073    0.6612
Li    Li372        0.6256    0.3154    0.5966
Li    Li373        0.6277    0.3936    0.6552
Li    Li374        0.5044    0.3017    0.9092
Li    Li375        0.6260    0.4920    0.1609
Li    Li376        0.6219    0.4422    0.2217
Li    Li377        0.5078    0.4059    0.4070
Li    Li378        0.6274    0.4519    0.2781
Li    Li379        0.5059    0.4427    0.2768
Li    Li380        0.5081    0.4077    0.6538
Li    Li381        0.6219    0.3943    0.5897
Li    Li382        0.5094    0.4412    0.5323
Li    Li383        0.6287    0.5886    0.1583
Li    Li384        0.6322    0.5558    0.0305
Li    Li385        0.5065    0.5487    0.2829
Li    Li386        0.5081    0.6118    0.1605
Li    Li387        0.6255    0.6002    0.0991
Li    Li388        0.9994    0.1547    0.7200
Li    Li389        0.9912    0.1966    0.8445
Li    Li390        0.8718    0.2469    0.7191
Li    Li391        0.9936    0.2528    0.7162
Li    Li392        0.7540    0.2067    0.9048
Li    Li393        0.7509    0.3019    0.6526
Li    Li394        0.9944    0.3949    0.5925
Li    Li395        0.8727    0.3488    0.7199
Li    Li396        0.8806    0.3561    0.7832
Li    Li397        0.9904    0.4918    0.5971
