data_max_cluster
_audit_creation_method         'generated by data2config v5.5c'
 
_cell_length_a                  84.92680
_cell_length_b                  87.57400
_cell_length_c                  75.14280
_cell_angle_alpha               90.00000
_cell_angle_beta                96.73700
_cell_angle_gamma               90.00000
 
loop_
_symmetry_equiv_pos_as_xyz
'+x,+y,+z'
 
loop_
_atom_site_type_symbol
_atom_site_label
_atom_site_fract_x
_atom_site_fract_y
_atom_site_fract_z
Li    Li1        0.0801    0.0908    0.1648
Li    Li2        0.1620    0.0114    0.0760
Li    Li3        0.2053    0.0179    0.1614
Li    Li4        0.2152    0.0385    0.2845
Li    Li5        0.0902    0.0663    0.2896
Li    Li6        0.1651    0.0102    0.3362
Li    Li7        0.0355    0.0883    0.3394
Li    Li8        0.0854    0.1654    0.0420
Li    Li9        0.1597    0.1132    0.0887
Li    Li10        0.2061    0.1145    0.2621
Li    Li11        0.1658    0.1348    0.4763
Li    Li12        0.0344    0.1841    0.3507
Li    Li13        0.2167    0.1103    0.4105
Li    Li14        0.0843    0.1718    0.5198
Li    Li15        0.0840    0.1888    0.6614
Li    Li16        0.1574    0.1351    0.9594
Li    Li17        0.0853    0.1635    0.7943
Li    Li18        0.0389    0.2868    0.0844
Li    Li19        0.1632    0.2381    0.4545
Li    Li20        0.0894    0.2870    0.4102
Li    Li21        0.2033    0.2071    0.4155
Li    Li22        0.0370    0.2612    0.7083
Li    Li23        0.1670    0.2390    0.7126
Li    Li24        0.0967    0.2624    0.5344
Li    Li25        0.0358    0.2846    0.5797
Li    Li26        0.2137    0.2338    0.7750
Li    Li27        0.0402    0.2860    0.8372
Li    Li28        0.0339    0.3875    0.0808
Li    Li29        0.2171    0.3389    0.2769
Li    Li30        0.0203    0.3593    0.4632
Li    Li31        0.1610    0.3313    0.4660
Li    Li32        0.0936    0.3592    0.2888
Li    Li33        0.0835    0.3900    0.4149
Li    Li34        0.1637    0.3099    0.3280
Li    Li35        0.0374    0.3732    0.3593
Li    Li36        0.1578    0.3399    0.7153
Li    Li37        0.2104    0.3380    0.7873
Li    Li38        0.0359    0.3648    0.9772
Li    Li39        0.1020    0.4814    0.1579
Li    Li40        0.1602    0.4071    0.0858
Li    Li41        0.2227    0.4186    0.1667
Li    Li42        0.0262    0.4707    0.4662
Li    Li43        0.2129    0.4165    0.4124
Li    Li44        0.0784    0.4692    0.5495
Li    Li45        0.0346    0.4864    0.5833
Li    Li46        0.1649    0.4343    0.9610
Li    Li47        0.0739    0.4647    0.7698
Li    Li48        0.0898    0.4896    0.9202
Li    Li49        0.1605    0.5384    0.4724
Li    Li50        0.0833    0.5854    0.4003
Li    Li51        0.2147    0.5097    0.4120
Li    Li52        0.0306    0.6678    0.2208
Li    Li53        0.0227    0.6795    0.0959
Li    Li54        0.2132    0.6288    0.2811
Li    Li55        0.0907    0.6832    0.4120
Li    Li56        0.0314    0.6843    0.3343
Li    Li57        0.0277    0.6614    0.7113
Li    Li58        0.1593    0.7407    0.4609
Li    Li59        0.2059    0.7100    0.4183
Li    Li60        0.2003    0.7349    0.5414
Li    Li61        0.1513    0.7119    0.5974
Li    Li62        0.2046    0.7292    0.8949
Li    Li63        0.0893    0.8649    0.2873
Li    Li64        0.0389    0.9875    0.0899
Li    Li65        0.2112    0.9444    0.2879
Li    Li66        0.0898    0.9905    0.4200
Li    Li67        0.1616    0.9096    0.3348
Li    Li68        0.3250    0.0616    0.2821
Li    Li69        0.2831    0.1654    0.2112
Li    Li70        0.4077    0.1337    0.2111
Li    Li71        0.3404    0.1912    0.4131
Li    Li72        0.2833    0.2083    0.3241
Li    Li73        0.4505    0.1417    0.5340
Li    Li74        0.3487    0.1836    0.6646
Li    Li75        0.3364    0.1686    0.7760
Li    Li76        0.4155    0.1139    0.8370
Li    Li77        0.4739    0.1112    0.9140
Li    Li78        0.2707    0.2648    0.2192
Li    Li79        0.4048    0.2322    0.2226
Li    Li80        0.3481    0.2850    0.1608
Li    Li81        0.4005    0.2349    0.4623
Li    Li82        0.4177    0.2182    0.3394
Li    Li83        0.2853    0.2818    0.8304
Li    Li84        0.4602    0.2187    0.9071
Li    Li85        0.4198    0.3326    0.2168
Li    Li86        0.3285    0.3617    0.0436
Li    Li87        0.3460    0.3885    0.1497
Li    Li88        0.2987    0.3906    0.0896
Li    Li89        0.4692    0.3020    0.1604
Li    Li90        0.2642    0.3656    0.4631
Li    Li91        0.2874    0.3605    0.7052
Li    Li92        0.4160    0.3418    0.7044
Li    Li93        0.3320    0.3854    0.6678
Li    Li94        0.4199    0.3375    0.9624
Li    Li95        0.2901    0.3912    0.8281
Li    Li96        0.4242    0.4302    0.2358
Li    Li97        0.2953    0.4610    0.4547
Li    Li98        0.3413    0.4633    0.2911
Li    Li99        0.4532    0.4365    0.5297
Li    Li100        0.4451    0.4459    0.7886
Li    Li101        0.3408    0.4605    0.7899
Li    Li102        0.3422    0.4895    0.9164
Li    Li103        0.4553    0.5404    0.0321
Li    Li104        0.3336    0.5654    0.0413
Li    Li105        0.3385    0.5841    0.1647
Li    Li106        0.2859    0.5954    0.0862
Li    Li107        0.2936    0.5980    0.3526
Li    Li108        0.2948    0.5681    0.9704
Li    Li109        0.3427    0.6657    0.0378
Li    Li110        0.3412    0.6900    0.1708
Li    Li111        0.4119    0.6178    0.0928
Li    Li112        0.4607    0.6187    0.1672
Li    Li113        0.3334    0.6632    0.2897
Li    Li114        0.4071    0.6151    0.3363
Li    Li115        0.4629    0.6349    0.5341
Li    Li116        0.4163    0.6451    0.7159
Li    Li117        0.3539    0.6851    0.6648
Li    Li118        0.4166    0.6351    0.9647
Li    Li119        0.3414    0.6696    0.7821
Li    Li120        0.3300    0.6928    0.9189
Li    Li121        0.4576    0.6266    0.8916
Li    Li122        0.4081    0.7386    0.7113
Li    Li123        0.4586    0.7116    0.6644
Li    Li124        0.2933    0.8766    0.7249
Li    Li125        0.3440    0.8856    0.6658
Li    Li126        0.2870    0.8857    0.8453
Li    Li127        0.2965    0.9638    0.4784
Li    Li128        0.4711    0.9332    0.5399
Li    Li129        0.3270    0.9595    0.5203
Li    Li130        0.4046    0.9155    0.5896
Li    Li131        0.6670    0.0428    0.2200
Li    Li132        0.7272    0.0371    0.2789
Li    Li133        0.6711    0.0125    0.3382
Li    Li134        0.7231    0.1336    0.0272
Li    Li135        0.6617    0.1325    0.2162
Li    Li136        0.5909    0.1888    0.1679
Li    Li137        0.5338    0.1567    0.9496
Li    Li138        0.5834    0.2662    0.0410
Li    Li139        0.6547    0.2443    0.4547
Li    Li140        0.5862    0.2597    0.2859
Li    Li141        0.5845    0.2759    0.4201
Li    Li142        0.7183    0.2129    0.4009
Li    Li143        0.5376    0.2592    0.7026
Li    Li144        0.7151    0.2155    0.6644
Li    Li145        0.5840    0.2618    0.7897
Li    Li146        0.5817    0.2875    0.9080
Li    Li147        0.6602    0.2021    0.8287
Li    Li148        0.5880    0.3887    0.1535
Li    Li149        0.6691    0.3151    0.0942
Li    Li150        0.7199    0.3089    0.1629
Li    Li151        0.7063    0.3357    0.2793
Li    Li152        0.6496    0.3240    0.3470
Li    Li153        0.5925    0.3553    0.5367
Li    Li154        0.6643    0.3116    0.5901
Li    Li155        0.5326    0.3631    0.9594
Li    Li156        0.7113    0.3124    0.9198
Li    Li157        0.5434    0.4657    0.2120
Li    Li158        0.5374    0.4908    0.0856
Li    Li159        0.5787    0.4667    0.5382
Li    Li160        0.5903    0.4890    0.6611
Li    Li161        0.7148    0.4394    0.7877
Li    Li162        0.5848    0.5838    0.1699
Li    Li163        0.5449    0.5892    0.0893
Li    Li164        0.6739    0.5191    0.3290
Li    Li165        0.7139    0.5042    0.4175
Li    Li166        0.7358    0.5179    0.6506
Li    Li167        0.7210    0.5333    0.7874
Li    Li168        0.7041    0.6305    0.0178
Li    Li169        0.5376    0.6830    0.0858
Li    Li170        0.6658    0.6372    0.4565
Li    Li171        0.5827    0.6548    0.2882
Li    Li172        0.7051    0.6352    0.5431
Li    Li173        0.5896    0.6653    0.5368
Li    Li174        0.7195    0.6051    0.6569
Li    Li175        0.7139    0.6470    0.7967
Li    Li176        0.6047    0.7834    0.3996
Li    Li177        0.6647    0.7101    0.3251
Li    Li178        0.7105    0.7136    0.4175
Li    Li179        0.5325    0.9968    0.3374
Li    Li180        0.7074    0.9374    0.5277
Li    Li181        0.6621    0.9123    0.5848
Li    Li182        0.8325    0.0660    0.2905
Li    Li183        0.7845    0.0808    0.3381
Li    Li184        0.9087    0.1407    0.2065
Li    Li185        0.8378    0.1601    0.0265
Li    Li186        0.9613    0.1382    0.2791
Li    Li187        0.8923    0.1329    0.4746
Li    Li188        0.9133    0.1139    0.3275
Li    Li189        0.7943    0.1871    0.8279
Li    Li190        0.9615    0.2419    0.0275
Li    Li191        0.9019    0.2428    0.2165
Li    Li192        0.9030    0.2132    0.0954
Li    Li193        0.7917    0.2602    0.4591
Li    Li194        0.8185    0.2859    0.4138
Li    Li195        0.9122    0.2098    0.3266
Li    Li196        0.9107    0.2370    0.7242
Li    Li197        0.9700    0.2350    0.7771
Li    Li198        0.9680    0.3353    0.0331
Li    Li199        0.7856    0.3659    0.2092
Li    Li200        0.8938    0.3099    0.0869
Li    Li201        0.7927    0.3789    0.1021
Li    Li202        0.8287    0.3663    0.2711
Li    Li203        0.9692    0.3349    0.5402
Li    Li204        0.9145    0.3285    0.7271
Li    Li205        0.8380    0.3918    0.6697
Li    Li206        0.9177    0.3119    0.5813
Li    Li207        0.7878    0.3954    0.6013
Li    Li208        0.8524    0.3647    0.7880
Li    Li209        0.7721    0.3776    0.8514
Li    Li210        0.9633    0.4307    0.0355
Li    Li211        0.9201    0.4317    0.4589
Li    Li212        0.9105    0.4097    0.3357
Li    Li213        0.9109    0.4341    0.9659
Li    Li214        0.9592    0.4162    0.9058
Li    Li215        0.7725    0.5657    0.2140
Li    Li216        0.8390    0.5870    0.4143
Li    Li217        0.8404    0.5892    0.6697
Li    Li218        0.8352    0.6917    0.4169
Li    Li219        0.9153    0.6078    0.3316
Li    Li220        0.8340    0.6691    0.5196
Li    Li221        0.8425    0.6866    0.6636
Li    Li222        0.7908    0.6879    0.5814
Li    Li223        0.9172    0.6496    0.9577
Li    Li224        0.9297    0.6214    0.8613
Li    Li225        0.7941    0.6803    0.8483
Li    Li226        0.9649    0.6031    0.9028
Li    Li227        0.9779    0.7100    0.6620
Li    Li228        0.9162    0.7357    0.9684
Li    Li229        0.9012    0.7235    0.8527
Li    Li230        0.1992    0.0359    0.1832
Li    Li231        0.0492    0.0859    0.1966
Li    Li232        0.1743    0.0395    0.3219
Li    Li233        0.0832    0.0576    0.4303
Li    Li234        0.0406    0.0615    0.3237
Li    Li235        0.0777    0.0911    0.3057
Li    Li236        0.1615    0.0166    0.4441
Li    Li237        0.2020    0.1333    0.1767
Li    Li238        0.0725    0.1884    0.0613
Li    Li239        0.1750    0.1324    0.3262
Li    Li240        0.2129    0.1397    0.4279
Li    Li241        0.0420    0.1674    0.3174
Li    Li242        0.2071    0.1096    0.3005
Li    Li243        0.0725    0.1929    0.3035
Li    Li244        0.1652    0.1132    0.4487
Li    Li245        0.1710    0.1420    0.5680
Li    Li246        0.0416    0.1646    0.5778
Li    Li247        0.0445    0.1845    0.6993
Li    Li248        0.0721    0.1893    0.5565
Li    Li249        0.0912    0.1725    0.9124
Li    Li250        0.2056    0.1113    0.9185
Li    Li251        0.0463    0.1614    0.8126
Li    Li252        0.1757    0.1132    0.9430
Li    Li253        0.1997    0.2338    0.1832
Li    Li254        0.0476    0.2943    0.1999
Li    Li255        0.2110    0.2131    0.0552
Li    Li256        0.2022    0.2422    0.4246
Li    Li257        0.0396    0.2772    0.4445
Li    Li258        0.1736    0.2097    0.4485
Li    Li259        0.1715    0.2388    0.5710
Li    Li260        0.0717    0.2674    0.6835
Li    Li261        0.2078    0.2425    0.6724
Li    Li262        0.0461    0.2613    0.5700
Li    Li263        0.0526    0.2917    0.6945
Li    Li264        0.2052    0.2118    0.5700
Li    Li265        0.1716    0.2121    0.6925
Li    Li266        0.0775    0.2578    0.9278
Li    Li267        0.2039    0.2325    0.9269
Li    Li268        0.0340    0.2572    0.8217
Li    Li269        0.0370    0.2843    0.9425
Li    Li270        0.0951    0.2938    0.8027
Li    Li271        0.1764    0.2110    0.9458
Li    Li272        0.1715    0.3411    0.0646
Li    Li273        0.2053    0.3434    0.1709
Li    Li274        0.2005    0.3077    0.0464
Li    Li275        0.0728    0.3940    0.0623
Li    Li276        0.1704    0.3035    0.1940
Li    Li277        0.1654    0.3425    0.3178
Li    Li278        0.0864    0.3598    0.4296
Li    Li279        0.2076    0.3381    0.4236
Li    Li280        0.0425    0.3657    0.3208
Li    Li281        0.1980    0.3158    0.3017
Li    Li282        0.0839    0.3924    0.2981
Li    Li283        0.1667    0.3027    0.4448
Li    Li284        0.2105    0.3399    0.6808
Li    Li285        0.1660    0.3377    0.8169
Li    Li286        0.0885    0.3580    0.9259
Li    Li287        0.0473    0.3861    0.9510
Li    Li288        0.1689    0.3121    0.9407
Li    Li289        0.1712    0.4437    0.0728
Li    Li290        0.0783    0.4734    0.1775
Li    Li291        0.1855    0.4427    0.1936
Li    Li292        0.0510    0.4905    0.1936
Li    Li293        0.2053    0.4140    0.0483
Li    Li294        0.1731    0.4172    0.1971
Li    Li295        0.0726    0.4785    0.4426
Li    Li296        0.1995    0.4473    0.4327
Li    Li297        0.0447    0.4642    0.3261
Li    Li298        0.0465    0.4900    0.4557
Li    Li299        0.1934    0.4074    0.3113
Li    Li300        0.0777    0.4881    0.3014
Li    Li301        0.1685    0.4088    0.4463
Li    Li302        0.1631    0.4360    0.5692
Li    Li303        0.2047    0.4375    0.6836
Li    Li304        0.0454    0.4555    0.5744
Li    Li305        0.2020    0.4116    0.5460
Li    Li306        0.1578    0.4100    0.6906
Li    Li307        0.1726    0.4416    0.8233
Li    Li308        0.0803    0.4608    0.9233
Li    Li309        0.2034    0.4328    0.9411
Li    Li310        0.0497    0.4658    0.8226
Li    Li311        0.0457    0.4887    0.9467
Li    Li312        0.0319    0.5963    0.1945
Li    Li313        0.1728    0.5362    0.3137
Li    Li314        0.0910    0.5685    0.4351
Li    Li315        0.2013    0.5435    0.4387
Li    Li316        0.0361    0.5699    0.3204
Li    Li317        0.0487    0.5897    0.4371
Li    Li318        0.0763    0.5896    0.2974
Li    Li319        0.1571    0.4975    0.4455
Li    Li320        0.0450    0.5862    0.6974
Li    Li321        0.1463    0.6483    0.0600
Li    Li322        0.0775    0.6638    0.1734
Li    Li323        0.1992    0.6157    0.0522
Li    Li324        0.0785    0.6892    0.0533
Li    Li325        0.1757    0.6334    0.3142
Li    Li326        0.0786    0.6525    0.4277
Li    Li327        0.1878    0.6500    0.4375
Li    Li328        0.0461    0.6653    0.3215
Li    Li329        0.0514    0.6680    0.4315
Li    Li330        0.0807    0.6897    0.3037
Li    Li331        0.1746    0.6111    0.4483
Li    Li332        0.0780    0.6626    0.6764
Li    Li333        0.0318    0.6962    0.6920
Li    Li334        0.2130    0.6413    0.9328
Li    Li335        0.1720    0.6076    0.9424
Li    Li336        0.1647    0.7401    0.0711
Li    Li337        0.2055    0.7097    0.0564
Li    Li338        0.1741    0.7422    0.3227
Li    Li339        0.2092    0.7057    0.3003
Li    Li340        0.1703    0.7106    0.4536
Li    Li341        0.1691    0.7443    0.5680
Li    Li342        0.1934    0.7158    0.5631
Li    Li343        0.0785    0.7858    0.5511
Li    Li344        0.2034    0.7403    0.9347
Li    Li345        0.0762    0.8646    0.4192
Li    Li346        0.0717    0.8803    0.3026
Li    Li347        0.0462    0.9592    0.0817
Li    Li348        0.0764    0.9847    0.0550
Li    Li349        0.1684    0.9332    0.3147
Li    Li350        0.0833    0.9636    0.4278
Li    Li351        0.2079    0.9406    0.4367
Li    Li352        0.0440    0.9891    0.4433
Li    Li353        0.2011    0.9182    0.3048
Li    Li354        0.1698    0.9131    0.4440
Li    Li355        0.2922    0.0825    0.2011
Li    Li356        0.2980    0.0651    0.3177
Li    Li357        0.4247    0.0170    0.4495
Li    Li358        0.3393    0.1461    0.1847
Li    Li359        0.3021    0.1850    0.1941
Li    Li360        0.4283    0.1133    0.1997
Li    Li361        0.3272    0.1700    0.4268
Li    Li362        0.4634    0.1466    0.4272
Li    Li363        0.2911    0.1625    0.3202
Li    Li364        0.4539    0.1067    0.3009
Li    Li365        0.3341    0.1857    0.3062
Li    Li366        0.4123    0.1172    0.4387
Li    Li367        0.4164    0.1435    0.5673
Li    Li368        0.3280    0.1594    0.6838
Li    Li369        0.2906    0.1886    0.7016
Li    Li370        0.3369    0.1812    0.5555
Li    Li371        0.4213    0.1416    0.8255
Li    Li372        0.3178    0.1698    0.9301
Li    Li373        0.4570    0.1363    0.9297
Li    Li374        0.2903    0.1787    0.7984
Li    Li375        0.4576    0.1109    0.8029
Li    Li376        0.3286    0.1847    0.8010
Li    Li377        0.4113    0.1037    0.9483
Li    Li378        0.3349    0.2717    0.1786
Li    Li379        0.4617    0.2381    0.1817
Li    Li380        0.3064    0.2481    0.0646
Li    Li381        0.2850    0.2958    0.1965
Li    Li382        0.4460    0.2059    0.0612
Li    Li383        0.3221    0.2854    0.0503
Li    Li384        0.4262    0.2012    0.1947
Li    Li385        0.3277    0.2612    0.4282
Li    Li386        0.4561    0.2082    0.2992
Li    Li387        0.3258    0.2919    0.3026
Li    Li388        0.4071    0.2115    0.4461
Li    Li389        0.4530    0.2334    0.6755
Li    Li390        0.4224    0.2048    0.6864
Li    Li391        0.4227    0.2388    0.8232
Li    Li392        0.3373    0.2558    0.9295
Li    Li393        0.4488    0.2316    0.9256
Li    Li394        0.2930    0.2581    0.8219
Li    Li395        0.2889    0.2835    0.9454
Li    Li396        0.4606    0.2150    0.8091
Li    Li397        0.3336    0.2888    0.8015
Li    Li398        0.4181    0.2281    0.9369
Li    Li399        0.3408    0.3564    0.1775
Li    Li400        0.4522    0.3330    0.1761
Li    Li401        0.2991    0.3712    0.0741
Li    Li402        0.3015    0.3897    0.1865
Li    Li403        0.4557    0.3186    0.0514
Li    Li404        0.3258    0.3926    0.0610
Li    Li405        0.4170    0.3170    0.1968
Li    Li406        0.3312    0.3636    0.4297
Li    Li407        0.3038    0.3885    0.4475
Li    Li408        0.3280    0.3574    0.6814
Li    Li409        0.4630    0.3402    0.6822
Li    Li410        0.2857    0.3931    0.6952
Li    Li411        0.4468    0.3169    0.5498
Li    Li412        0.4089    0.3173    0.6925
Li    Li413        0.4564    0.3274    0.9228
Li    Li414        0.3089    0.3526    0.8172
Li    Li415        0.4441    0.3219    0.8106
Li    Li416        0.3305    0.3948    0.7966
Li    Li417        0.4590    0.4422    0.1829
Li    Li418        0.2943    0.4636    0.0763
Li    Li419        0.4195    0.4235    0.2091
Li    Li420        0.3278    0.4639    0.4253
Li    Li421        0.4508    0.4436    0.4257
Li    Li422        0.2932    0.4660    0.3163
Li    Li423        0.3293    0.4939    0.3231
Li    Li424        0.4224    0.4108    0.4488
Li    Li425        0.4230    0.4321    0.5714
Li    Li426        0.2948    0.4863    0.7044
Li    Li427        0.4643    0.4114    0.5570
Li    Li428        0.4188    0.4156    0.6922
Li    Li429        0.4154    0.4326    0.8188
Li    Li430        0.3028    0.4604    0.8246
Li    Li431        0.2938    0.4914    0.9390
Li    Li432        0.4462    0.4146    0.8120
Li    Li433        0.4213    0.5421    0.0621
Li    Li434        0.4625    0.5354    0.1816
Li    Li435        0.2947    0.5637    0.0683
Li    Li436        0.2967    0.5835    0.1962
Li    Li437        0.4562    0.5109    0.0518
Li    Li438        0.3249    0.5897    0.0556
Li    Li439        0.4251    0.5026    0.1918
Li    Li440        0.3262    0.5623    0.4179
Li    Li441        0.2941    0.5762    0.3365
Li    Li442        0.3344    0.5609    0.9312
Li    Li443        0.2891    0.5811    0.9440
Li    Li444        0.4201    0.6367    0.0781
Li    Li445        0.3427    0.6609    0.1850
Li    Li446        0.4498    0.6391    0.1792
Li    Li447        0.3007    0.6589    0.0678
Li    Li448        0.2905    0.6883    0.1947
Li    Li449        0.3377    0.6894    0.0524
Li    Li450        0.4224    0.6141    0.2019
Li    Li451        0.4241    0.6416    0.3189
Li    Li452        0.3358    0.6632    0.4272
Li    Li453        0.2957    0.6736    0.3190
Li    Li454        0.3021    0.6738    0.4370
Li    Li455        0.4562    0.6168    0.3009
Li    Li456        0.4219    0.6156    0.4523
Li    Li457        0.4216    0.6349    0.5680
Li    Li458        0.3340    0.6603    0.6748
Li    Li459        0.4454    0.6354    0.6775
Li    Li460        0.4265    0.6141    0.6818
Li    Li461        0.4141    0.6438    0.8070
Li    Li462        0.3303    0.6601    0.9268
Li    Li463        0.4523    0.6349    0.9234
Li    Li464        0.2923    0.6620    0.8229
Li    Li465        0.3014    0.6831    0.9484
Li    Li466        0.4522    0.6160    0.7930
Li    Li467        0.4281    0.6189    0.9484
Li    Li468        0.3311    0.7611    0.1833
Li    Li469        0.4494    0.7075    0.0571
Li    Li470        0.4266    0.7141    0.1961
Li    Li471        0.4156    0.7365    0.3209
Li    Li472        0.4643    0.7108    0.3056
Li    Li473        0.4172    0.7381    0.5744
Li    Li474        0.4467    0.7151    0.5523
Li    Li475        0.4177    0.7111    0.9467
Li    Li476        0.3267    0.8584    0.4331
Li    Li477        0.4505    0.8346    0.4260
Li    Li478        0.2930    0.8628    0.3197
Li    Li479        0.2976    0.8866    0.4561
Li    Li480        0.3377    0.8881    0.3054
Li    Li481        0.4174    0.8077    0.4502
Li    Li482        0.3269    0.8663    0.6762
Li    Li483        0.4526    0.8100    0.5505
Li    Li484        0.3327    0.8840    0.5514
Li    Li485        0.2947    0.8636    0.8232
Li    Li486        0.3265    0.9591    0.4261
Li    Li487        0.2976    0.9842    0.4410
Li    Li488        0.4206    0.9136    0.4499
Li    Li489        0.3008    0.9617    0.5742
Li    Li490        0.4530    0.9083    0.5494
Li    Li491        0.6983    0.0314    0.1858
Li    Li492        0.6706    0.0170    0.2026
Li    Li493        0.6549    0.0423    0.3179
Li    Li494        0.5387    0.0561    0.3214
Li    Li495        0.5505    0.0859    0.4382
Li    Li496        0.7228    0.0047    0.3020
Li    Li497        0.5838    0.0894    0.3123
Li    Li498        0.6719    0.1237    0.0623
Li    Li499        0.5779    0.1583    0.1735
Li    Li500        0.6987    0.1302    0.1772
Li    Li501        0.5407    0.1831    0.1949
Li    Li502        0.7006    0.1141    0.0503
Li    Li503        0.5809    0.1627    0.4310
Li    Li504        0.5490    0.1655    0.3316
Li    Li505        0.5520    0.1790    0.4493
Li    Li506        0.5867    0.1929    0.5525
Li    Li507        0.5861    0.1652    0.9247
Li    Li508        0.7017    0.1292    0.9291
Li    Li509        0.6725    0.1154    0.9524
Li    Li510        0.6982    0.2378    0.1790
Li    Li511        0.5459    0.2718    0.0719
Li    Li512        0.5486    0.2883    0.2007
Li    Li513        0.5793    0.2900    0.0552
Li    Li514        0.7060    0.2446    0.4344
Li    Li515        0.5416    0.2625    0.3264
Li    Li516        0.5481    0.2845    0.4471
Li    Li517        0.6620    0.2100    0.4420
Li    Li518        0.6693    0.2389    0.5821
Li    Li519        0.5793    0.2628    0.6688
Li    Li520        0.7047    0.2351    0.6706
Li    Li521        0.5878    0.2921    0.5591
Li    Li522        0.6747    0.2130    0.7016
Li    Li523        0.6659    0.2380    0.8178
Li    Li524        0.5811    0.2638    0.9346
Li    Li525        0.5308    0.2671    0.8177
Li    Li526        0.5520    0.2858    0.9348
Li    Li527        0.7109    0.2056    0.7979
Li    Li528        0.6645    0.3333    0.0724
Li    Li529        0.5763    0.3571    0.1735
Li    Li530        0.7057    0.3360    0.1759
Li    Li531        0.5453    0.3689    0.0765
Li    Li532        0.5473    0.3837    0.1898
Li    Li533        0.7004    0.3088    0.0576
Li    Li534        0.6660    0.3148    0.1903
Li    Li535        0.6617    0.3421    0.3223
Li    Li536        0.5846    0.3687    0.4295
Li    Li537        0.5450    0.3569    0.3255
Li    Li538        0.6990    0.3135    0.3050
Li    Li539        0.6762    0.3347    0.5695
Li    Li540        0.5410    0.3666    0.5732
Li    Li541        0.5780    0.3922    0.5570
Li    Li542        0.6584    0.3434    0.8177
Li    Li543        0.6715    0.3151    0.9414
Li    Li544        0.5466    0.4684    0.0706
Li    Li545        0.5544    0.4929    0.1941
Li    Li546        0.5726    0.4818    0.0525
Li    Li547        0.5391    0.4563    0.3193
Li    Li548        0.6729    0.4460    0.5562
Li    Li549        0.5450    0.4678    0.5715
Li    Li550        0.5457    0.4840    0.6968
Li    Li551        0.5749    0.4860    0.5558
Li    Li552        0.6715    0.4405    0.8175
Li    Li553        0.5771    0.4709    0.9288
Li    Li554        0.5942    0.4932    0.8003
Li    Li555        0.6709    0.5349    0.0693
Li    Li556        0.5725    0.5654    0.1831
Li    Li557        0.7040    0.5373    0.1923
Li    Li558        0.5527    0.5505    0.0652
Li    Li559        0.5410    0.5722    0.1952
Li    Li560        0.5797    0.5715    0.0733
Li    Li561        0.6755    0.5095    0.1935
Li    Li562        0.5938    0.5603    0.4405
Li    Li563        0.6997    0.5401    0.4352
Li    Li564        0.5451    0.5614    0.3248
Li    Li565        0.7014    0.5126    0.3069
Li    Li566        0.5754    0.5932    0.3008
Li    Li567        0.6684    0.5140    0.4496
Li    Li568        0.5808    0.5621    0.6801
Li    Li569        0.5468    0.5612    0.5752
Li    Li570        0.5875    0.5768    0.5552
Li    Li571        0.6777    0.5136    0.6969
Li    Li572        0.6646    0.5454    0.8198
Li    Li573        0.5765    0.5608    0.9297
Li    Li574        0.7049    0.5264    0.9365
Li    Li575        0.5286    0.5978    0.9467
Li    Li576        0.7080    0.5129    0.8016
Li    Li577        0.6818    0.5004    0.9420
Li    Li578        0.6663    0.6443    0.0707
Li    Li579        0.6653    0.6417    0.3206
Li    Li580        0.7026    0.6384    0.4277
Li    Li581        0.5488    0.6619    0.3284
Li    Li582        0.7103    0.6173    0.3065
Li    Li583        0.5752    0.6764    0.3017
Li    Li584        0.7081    0.6346    0.6803
Li    Li585        0.5388    0.6598    0.5698
Li    Li586        0.5506    0.6902    0.6968
Li    Li587        0.7088    0.6119    0.5387
Li    Li588        0.5789    0.6887    0.5531
Li    Li589        0.6670    0.6139    0.6939
Li    Li590        0.6992    0.6204    0.9367
Li    Li591        0.7157    0.6147    0.8063
Li    Li592        0.5815    0.7603    0.1787
Li    Li593        0.6790    0.7359    0.3264
Li    Li594        0.5803    0.7602    0.4336
Li    Li595        0.7070    0.7373    0.4255
Li    Li596        0.5469    0.7621    0.3188
Li    Li597        0.5489    0.7851    0.4475
Li    Li598        0.7009    0.7206    0.3139
Li    Li599        0.5798    0.7890    0.2982
Li    Li600        0.6701    0.7129    0.4433
Li    Li601        0.6756    0.7283    0.5692
Li    Li602        0.7031    0.7110    0.5459
Li    Li603        0.6781    0.8125    0.4449
Li    Li604        0.5790    0.8630    0.6754
Li    Li605        0.5460    0.8648    0.5757
Li    Li606        0.5418    0.8956    0.6928
Li    Li607        0.5400    0.9606    0.3167
Li    Li608        0.5795    0.9873    0.2984
Li    Li609        0.6668    0.9384    0.5715
Li    Li610        0.7061    0.9178    0.5481
Li    Li611        0.9518    0.0387    0.1726
Li    Li612        0.9505    0.0315    0.4234
Li    Li613        0.7799    0.0580    0.3191
Li    Li614        0.9612    0.0140    0.3155
Li    Li615        0.8340    0.0906    0.3185
Li    Li616        0.8293    0.1651    0.1796
Li    Li617        0.9541    0.1410    0.1826
Li    Li618        0.7833    0.1578    0.0679
Li    Li619        0.9228    0.1083    0.2033
Li    Li620        0.9500    0.1340    0.4331
Li    Li621        0.7946    0.1596    0.3212
Li    Li622        0.7941    0.1885    0.4435
Li    Li623        0.9425    0.1209    0.3066
Li    Li624        0.9175    0.1123    0.4446
Li    Li625        0.8407    0.1958    0.8173
Li    Li626        0.9262    0.2409    0.0600
Li    Li627        0.8425    0.2572    0.1795
Li    Li628        0.9560    0.2395    0.1756
Li    Li629        0.7919    0.2607    0.0703
Li    Li630        0.9540    0.2122    0.0548
Li    Li631        0.9109    0.2148    0.1984
Li    Li632        0.9329    0.2470    0.2955
Li    Li633        0.8242    0.2590    0.4308
Li    Li634        0.9564    0.2379    0.4250
Li    Li635        0.7950    0.2964    0.4417
Li    Li636        0.9577    0.2133    0.2981
Li    Li637        0.8282    0.2558    0.6783
Li    Li638        0.9556    0.2442    0.6833
Li    Li639        0.7907    0.2538    0.5614
Li    Li640        0.7943    0.2763    0.6947
Li    Li641        0.8322    0.2845    0.5506
Li    Li642        0.9269    0.2083    0.6933
Li    Li643        0.9254    0.2358    0.8301
Li    Li644        0.7963    0.2568    0.8209
Li    Li645        0.9442    0.2059    0.8104
Li    Li646        0.8355    0.2834    0.8076
Li    Li647        0.9111    0.3507    0.0669
Li    Li648        0.8291    0.3650    0.1793
Li    Li649        0.9463    0.3392    0.1731
Li    Li650        0.8016    0.3957    0.2062
Li    Li651        0.9612    0.3144    0.0572
Li    Li652        0.8221    0.3894    0.0509
Li    Li653        0.9124    0.3081    0.1966
Li    Li654        0.9290    0.3371    0.3157
Li    Li655        0.8262    0.3575    0.4348
Li    Li656        0.9582    0.3327    0.4278
Li    Li657        0.7868    0.3939    0.4461
Li    Li658        0.9567    0.3141    0.3053
Li    Li659        0.9206    0.3116    0.4478
Li    Li660        0.9126    0.3368    0.5673
Li    Li661        0.8273    0.3635    0.6810
Li    Li662        0.7933    0.3718    0.5722
Li    Li663        0.8006    0.3822    0.7045
Li    Li664        0.9578    0.3158    0.5562
Li    Li665        0.8316    0.3881    0.5568
Li    Li666        0.9201    0.3392    0.8143
Li    Li667        0.8356    0.3632    0.9283
Li    Li668        0.7970    0.3651    0.8223
Li    Li669        0.7762    0.3936    0.9344
Li    Li670        0.8368    0.3862    0.8054
Li    Li671        0.9224    0.4379    0.0754
Li    Li672        0.9194    0.4327    0.3275
Li    Li673        0.8352    0.4582    0.4282
Li    Li674        0.9475    0.4358    0.4269
Li    Li675        0.7929    0.4912    0.4467
Li    Li676        0.9497    0.4080    0.3232
Li    Li677        0.8297    0.4486    0.6948
Li    Li678        0.7973    0.4581    0.5762
Li    Li679        0.7971    0.4878    0.7018
Li    Li680        0.9517    0.4157    0.5597
Li    Li681        0.9220    0.4177    0.7055
Li    Li682        0.9103    0.4269    0.8172
Li    Li683        0.8331    0.4565    0.9341
Li    Li684        0.8012    0.4661    0.8141
Li    Li685        0.7964    0.4887    0.9529
Li    Li686        0.9216    0.4164    0.9399
Li    Li687        0.9477    0.5272    0.1956
Li    Li688        0.9651    0.5077    0.0561
Li    Li689        0.9312    0.5335    0.3191
Li    Li690        0.8335    0.5630    0.4249
Li    Li691        0.7891    0.5644    0.3171
Li    Li692        0.7984    0.5847    0.4475
Li    Li693        0.9562    0.5186    0.3017
Li    Li694        0.8240    0.5874    0.3009
Li    Li695        0.7836    0.5580    0.5658
Li    Li696        0.7906    0.5883    0.6924
Li    Li697        0.8196    0.5988    0.5517
Li    Li698        0.9155    0.5068    0.7048
Li    Li699        0.9540    0.5350    0.9290
Li    Li700        0.9446    0.5250    0.8005
Li    Li701        0.9111    0.5078    0.9360
Li    Li702        0.9165    0.6411    0.0750
Li    Li703        0.8442    0.6500    0.1875
Li    Li704        0.9552    0.6384    0.1889
Li    Li705        0.8474    0.6923    0.0568
Li    Li706        0.9178    0.6109    0.1924
Li    Li707        0.9519    0.6328    0.4254
Li    Li708        0.7957    0.6834    0.4458
Li    Li709        0.9500    0.6168    0.3084
Li    Li710        0.9268    0.6010    0.4380
Li    Li711        0.9525    0.6332    0.6751
Li    Li712        0.7999    0.6582    0.5665
Li    Li713        0.7994    0.6863    0.7118
Li    Li714        0.9650    0.6402    0.9329
Li    Li715        0.7921    0.6518    0.8222
Li    Li716        0.7964    0.6909    0.9397
Li    Li717        0.8272    0.6824    0.7955
Li    Li718        0.9220    0.6103    0.9523
Li    Li719        0.9486    0.7390    0.1833
Li    Li720        0.9484    0.7137    0.0588
Li    Li721        0.9168    0.7158    0.2008
Li    Li722        0.9604    0.7141    0.2997
Li    Li723        0.9177    0.7387    0.5700
Li    Li724        0.9572    0.7398    0.6742
Li    Li725        0.9210    0.7121    0.6985
Li    Li726        0.9048    0.7423    0.8192
Li    Li727        0.9498    0.7354    0.9255
Li    Li728        0.9568    0.7143    0.8032
Li    Li729        0.9233    0.7095    0.9434
Li    Li730        0.7892    0.9611    0.3189
Li    Li731        0.0030    0.0904    0.1818
Li    Li732        0.1336    0.0158    0.2027
Li    Li733        0.1332    0.0380    0.3132
Li    Li734        0.1198    0.0636    0.4256
Li    Li735        0.1191    0.0873    0.2792
Li    Li736        0.1303    0.0159    0.4502
Li    Li737        0.2354    0.1351    0.1936
Li    Li738        0.0984    0.1984    0.0645
Li    Li739        0.1346    0.1306    0.1841
Li    Li740        0.1303    0.1335    0.3367
Li    Li741        0.2559    0.1353    0.4330
Li    Li742        0.1195    0.1924    0.3109
Li    Li743        0.1294    0.1104    0.4494
Li    Li744        0.1374    0.1402    0.5754
Li    Li745        0.1158    0.1648    0.9404
Li    Li746        0.0019    0.1641    0.8212
Li    Li747        0.2440    0.2296    0.2066
Li    Li748        0.2474    0.2151    0.0586
Li    Li749        0.1159    0.2851    0.0609
Li    Li750        0.1140    0.2597    0.4427
Li    Li751        0.2474    0.2364    0.4402
Li    Li752        0.0087    0.2812    0.4271
Li    Li753        0.1175    0.2581    0.7021
Li    Li754        0.2378    0.2171    0.5765
Li    Li755        0.1377    0.2895    0.5515
Li    Li756        0.1206    0.2207    0.6857
Li    Li757        0.1212    0.2623    0.9173
Li    Li758        0.1237    0.2043    0.9423
Li    Li759        0.1086    0.3343    0.0695
Li    Li760        0.1208    0.3654    0.2139
Li    Li761        0.2453    0.3346    0.1798
Li    Li762        0.9897    0.3657    0.0665
Li    Li763        0.2530    0.3095    0.0314
Li    Li764        0.1294    0.3420    0.3237
Li    Li765        0.2415    0.3420    0.4374
Li    Li766        0.9999    0.3820    0.4427
Li    Li767        0.2523    0.3415    0.6844
Li    Li768        0.1312    0.3408    0.8123
Li    Li769        0.1260    0.3612    0.9332
Li    Li770        0.2435    0.3426    0.9378
Li    Li771        0.2547    0.4491    0.1791
Li    Li772        0.1110    0.4144    0.2194
Li    Li773        0.1245    0.4619    0.4344
Li    Li774        0.0026    0.4637    0.3008
Li    Li775        0.1230    0.4745    0.3055
Li    Li776        0.1434    0.4105    0.4552
Li    Li777        0.0098    0.4628    0.5516
Li    Li778        0.2463    0.4157    0.5548
Li    Li779        0.1266    0.4144    0.6954
Li    Li780        0.2427    0.4303    0.9397
Li    Li781        0.0032    0.4654    0.8216
Li    Li782        0.1391    0.4126    0.9486
Li    Li783        0.1317    0.5338    0.3182
Li    Li784        0.9893    0.5554    0.3311
Li    Li785        0.1301    0.5210    0.4404
Li    Li786        0.1221    0.6598    0.1768
Li    Li787        0.0002    0.6823    0.2077
Li    Li788        0.1118    0.6859    0.0595
Li    Li789        0.1316    0.6267    0.3128
Li    Li790        0.0076    0.6637    0.3289
Li    Li791        0.0122    0.6839    0.4387
Li    Li792        0.2458    0.6146    0.3174
Li    Li793        0.1173    0.6804    0.2995
Li    Li794        0.0121    0.6874    0.9301
Li    Li795        0.2492    0.7448    0.4362
Li    Li796        0.1306    0.7124    0.4501
Li    Li797        0.1461    0.7222    0.5732
Li    Li798        0.2238    0.7056    0.5535
Li    Li799        0.1150    0.7866    0.5356
Li    Li800        0.0215    0.8582    0.3163
Li    Li801        0.1165    0.8814    0.3216
Li    Li802        0.1377    0.9377    0.0706
Li    Li803        0.1197    0.9828    0.0571
Li    Li804        0.0109    0.9933    0.4519
Li    Li805        0.5120    0.0439    0.4219
Li    Li806        0.2463    0.0614    0.3240
Li    Li807        0.3796    0.0054    0.4416
Li    Li808        0.4898    0.1398    0.4363
Li    Li809        0.2606    0.1596    0.3079
Li    Li810        0.2598    0.1914    0.4445
Li    Li811        0.3912    0.1457    0.5662
Li    Li812        0.2548    0.1946    0.7015
Li    Li813        0.3706    0.1812    0.5455
Li    Li814        0.3638    0.1705    0.9375
Li    Li815        0.4865    0.1061    0.8187
Li    Li816        0.3677    0.1874    0.8152
Li    Li817        0.3817    0.1160    0.9383
Li    Li818        0.2761    0.2477    0.0598
Li    Li819        0.2520    0.2855    0.2099
Li    Li820        0.3782    0.2425    0.3238
Li    Li821        0.3706    0.2614    0.4200
Li    Li822        0.4903    0.2363    0.4278
Li    Li823        0.4830    0.2147    0.3145
Li    Li824        0.3660    0.2941    0.2989
Li    Li825        0.3868    0.2111    0.6877
Li    Li826        0.3770    0.2361    0.8306
Li    Li827        0.5016    0.2374    0.9224
Li    Li828        0.3732    0.2129    0.9425
Li    Li829        0.3855    0.3395    0.0641
Li    Li830        0.5275    0.3319    0.1780
Li    Li831        0.2611    0.3781    0.0591
Li    Li832        0.2559    0.3857    0.1886
Li    Li833        0.3627    0.3925    0.0512
Li    Li834        0.2566    0.3884    0.4553
Li    Li835        0.2624    0.3965    0.6754
Li    Li836        0.4938    0.3392    0.9264
Li    Li837        0.3737    0.3977    0.8007
Li    Li838        0.3940    0.3030    0.9391
Li    Li839        0.3648    0.4557    0.1836
Li    Li840        0.5080    0.4407    0.1800
Li    Li841        0.5188    0.4107    0.0396
Li    Li842        0.3786    0.4143    0.2003
Li    Li843        0.3648    0.4635    0.4368
Li    Li844        0.2516    0.4692    0.3120
Li    Li845        0.3837    0.4231    0.4348
Li    Li846        0.4902    0.4135    0.5512
Li    Li847        0.2601    0.4628    0.8127
Li    Li848        0.2636    0.4906    0.9496
Li    Li849        0.5006    0.5453    0.1962
Li    Li850        0.2576    0.5581    0.0696
Li    Li851        0.5050    0.5049    0.0403
Li    Li852        0.3628    0.5843    0.0629
Li    Li853        0.3809    0.6621    0.1740
Li    Li854        0.2522    0.6643    0.0633
Li    Li855        0.2575    0.6809    0.1929
Li    Li856        0.3805    0.6136    0.1969
Li    Li857        0.3871    0.6418    0.2998
Li    Li858        0.2677    0.6812    0.3114
Li    Li859        0.2646    0.6823    0.4741
Li    Li860        0.5093    0.6029    0.2970
Li    Li861        0.3757    0.6365    0.5680
Li    Li862        0.3697    0.6669    0.6916
Li    Li863        0.4953    0.6365    0.6851
Li    Li864        0.3873    0.6281    0.8024
Li    Li865        0.2622    0.6832    0.9568
Li    Li866        0.3647    0.6053    0.9567
Li    Li867        0.3879    0.7386    0.0622
Li    Li868        0.3659    0.7593    0.1785
Li    Li869        0.3899    0.7108    0.1899
Li    Li870        0.3776    0.7312    0.3232
Li    Li871        0.5225    0.7152    0.3156
Li    Li872        0.4893    0.7092    0.5574
Li    Li873        0.3981    0.6949    0.6910
Li    Li874        0.3580    0.8567    0.4352
Li    Li875        0.2582    0.8700    0.3154
Li    Li876        0.2560    0.8842    0.4441
Li    Li877        0.3773    0.8213    0.4642
Li    Li878        0.2482    0.8874    0.6793
Li    Li879        0.3676    0.8892    0.5518
Li    Li880        0.2575    0.8588    0.8107
Li    Li881        0.3652    0.9629    0.4517
Li    Li882        0.3774    0.9260    0.5615
Li    Li883        0.2551    0.9551    0.5579
Li    Li884        0.5136    0.9083    0.5642
Li    Li885        0.6501    0.0067    0.1917
Li    Li886        0.6281    0.0441    0.3192
Li    Li887        0.6192    0.0822    0.3170
Li    Li888        0.6285    0.1314    0.0812
Li    Li889        0.6161    0.1676    0.1715
Li    Li890        0.7262    0.1469    0.1971
Li    Li891        0.5048    0.1582    0.3160
Li    Li892        0.6163    0.1899    0.5645
Li    Li893        0.6176    0.1636    0.9307
Li    Li894        0.7387    0.1421    0.9419
Li    Li895        0.5028    0.2776    0.0670
Li    Li896        0.5997    0.2980    0.0719
Li    Li897        0.7398    0.2424    0.4398
Li    Li898        0.5115    0.2728    0.4299
Li    Li899        0.6281    0.2031    0.4477
Li    Li900        0.6209    0.2635    0.6833
Li    Li901        0.7331    0.2423    0.6776
Li    Li902        0.5054    0.2898    0.6957
Li    Li903        0.6194    0.2913    0.5604
Li    Li904        0.6339    0.2153    0.6896
Li    Li905        0.6408    0.2422    0.8042
Li    Li906        0.5054    0.2810    0.9514
Li    Li907        0.7619    0.2193    0.8062
Li    Li908        0.6126    0.3569    0.1894
Li    Li909        0.7516    0.3397    0.1853
Li    Li910        0.5076    0.3839    0.2002
Li    Li911        0.7389    0.3111    0.0496
Li    Li912        0.6351    0.3357    0.3136
Li    Li913        0.7327    0.3062    0.3192
Li    Li914        0.6152    0.3865    0.2955
Li    Li915        0.7417    0.3262    0.5729
Li    Li916        0.7419    0.3420    0.9381
Li    Li917        0.6299    0.4576    0.4181
Li    Li918        0.4799    0.4827    0.4567
Li    Li919        0.5145    0.4663    0.5689
Li    Li920        0.6235    0.4647    0.9223
Li    Li921        0.7439    0.4377    0.9121
Li    Li922        0.6259    0.4836    0.8033
Li    Li923        0.6200    0.5366    0.0739
Li    Li924        0.5227    0.5489    0.0703
Li    Li925        0.6148    0.5913    0.0680
Li    Li926        0.6256    0.5133    0.1855
Li    Li927        0.7514    0.5200    0.3073
Li    Li928        0.6226    0.5741    0.3033
Li    Li929        0.6298    0.5023    0.4362
Li    Li930        0.6158    0.5599    0.6796
Li    Li931        0.6246    0.5186    0.6999
Li    Li932        0.6154    0.5668    0.9243
Li    Li933        0.6331    0.5149    0.9271
Li    Li934        0.6335    0.6360    0.0597
Li    Li935        0.6322    0.6594    0.4355
Li    Li936        0.7373    0.6432    0.4345
Li    Li937        0.7377    0.6492    0.7116
Li    Li938        0.5041    0.6589    0.5701
Li    Li939        0.5128    0.6857    0.6878
Li    Li940        0.6137    0.6789    0.5302
Li    Li941        0.6344    0.6120    0.6970
Li    Li942        0.7297    0.6455    0.9467
Li    Li943        0.7502    0.6070    0.8067
Li    Li944        0.7392    0.7196    0.4417
Li    Li945        0.5256    0.7984    0.4358
Li    Li946        0.7365    0.7169    0.3079
Li    Li947        0.6094    0.7928    0.3223
Li    Li948        0.7431    0.7161    0.5631
Li    Li949        0.5046    0.8683    0.5760
Li    Li950        0.6127    0.9783    0.3038
Li    Li951        0.6233    0.9349    0.5750
Li    Li952        0.9682    0.0475    0.1912
Li    Li953        0.9028    0.0504    0.3147
Li    Li954        0.9816    0.0451    0.4379
Li    Li955        0.7434    0.0717    0.3078
Li    Li956        0.8719    0.0850    0.3100
Li    Li957        0.7542    0.1653    0.0805
Li    Li958        0.8563    0.1920    0.0552
Li    Li959        0.8783    0.1319    0.3458
Li    Li960        0.0041    0.1284    0.4290
Li    Li961        0.7598    0.1589    0.4629
Li    Li962        0.9881    0.1133    0.3032
Li    Li963        0.8782    0.1144    0.4629
Li    Li964        0.7544    0.1826    0.9340
Li    Li965        0.8682    0.1837    0.8237
Li    Li966        0.8751    0.2371    0.0557
Li    Li967        0.8876    0.2318    0.3003
Li    Li968        0.9920    0.2326    0.4368
Li    Li969        0.9889    0.2157    0.3086
Li    Li970        0.8601    0.2622    0.6730
Li    Li971        0.7589    0.2671    0.5892
Li    Li972        0.8701    0.2847    0.5577
Li    Li973        0.8815    0.2079    0.6949
Li    Li974        0.8854    0.2258    0.8258
Li    Li975        0.8792    0.3365    0.0773
Li    Li976        0.9941    0.3345    0.1777
Li    Li977        0.0044    0.3216    0.0503
Li    Li978        0.9054    0.3619    0.3122
Li    Li979        0.9907    0.3384    0.4287
Li    Li980        0.9921    0.3072    0.3142
Li    Li981        0.8819    0.3370    0.5594
Li    Li982        0.8777    0.3657    0.6953
Li    Li983        0.8860    0.3345    0.8130
Li    Li984        0.8746    0.3632    0.9288
Li    Li985        0.9861    0.3278    0.9521
Li    Li986        0.7497    0.3859    0.9469
Li    Li987        0.8690    0.3857    0.8117
Li    Li988        0.9860    0.4506    0.4500
Li    Li989        0.9939    0.4169    0.3086
Li    Li990        0.7607    0.4665    0.5898
Li    Li991        0.0028    0.4130    0.5609
Li    Li992        0.8824    0.4181    0.7090
Li    Li993        0.8814    0.4330    0.8112
Li    Li994        0.8890    0.4574    0.9234
Li    Li995        0.9934    0.4409    0.9327
Li    Li996        0.7660    0.4900    0.9393
Li    Li997        0.9929    0.5318    0.1886
Li    Li998        0.8851    0.5271    0.3070
Li    Li999        0.7713    0.5947    0.4403
Li    Li1000        0.9903    0.5127    0.8037
Li    Li1001        0.8830    0.6326    0.0921
Li    Li1002        0.9930    0.6133    0.0578
Li    Li1003        0.7576    0.6865    0.4424
Li    Li1004        0.9910    0.6063    0.3175
Li    Li1005        0.8939    0.6039    0.4405
Li    Li1006        0.9924    0.6393    0.6794
Li    Li1007        0.7533    0.6604    0.5599
Li    Li1008        0.8674    0.6890    0.5609
Li    Li1009        0.0017    0.6400    0.9244
Li    Li1010        0.7524    0.6602    0.8226
Li    Li1011        0.7613    0.6850    0.9388
Li    Li1012        0.8788    0.6157    0.9507
Li    Li1013        0.9899    0.7154    0.0682
Li    Li1014        0.9924    0.7110    0.3012
Li    Li1015        0.8807    0.7154    0.6877
Li    Li1016        0.9939    0.7316    0.9346
Li    Li1017        0.2011    0.0524    0.2299
Li    Li1018        0.0412    0.0935    0.1451
Li    Li1019        0.0800    0.0630    0.4809
Li    Li1020        0.1580    0.0516    0.2753
Li    Li1021        0.1695    0.0039    0.3874
Li    Li1022        0.0888    0.1033    0.3827
Li    Li1023        0.0431    0.0563    0.5214
Li    Li1024        0.0721    0.0990    0.6258
Li    Li1025        0.2049    0.1406    0.2284
Li    Li1026        0.0810    0.1611    0.4812
Li    Li1027        0.0345    0.1566    0.2543
Li    Li1028        0.2071    0.1014    0.3714
Li    Li1029        0.1665    0.0966    0.3891
Li    Li1030        0.0534    0.1556    0.5116
Li    Li1031        0.0842    0.1517    0.9916
Li    Li1032        0.0488    0.1627    0.7668
Li    Li1033        0.2054    0.1548    0.9822
Li    Li1034        0.1656    0.2033    0.1446
Li    Li1035        0.2138    0.1993    0.3714
Li    Li1036        0.1654    0.2526    0.5198
Li    Li1037        0.0415    0.2560    0.5156
Li    Li1038        0.2086    0.2477    0.7247
Li    Li1039        0.0402    0.2919    0.6399
Li    Li1040        0.1629    0.2094    0.6353
Li    Li1041        0.0789    0.2648    0.9845
Li    Li1042        0.1682    0.2056    0.8955
Li    Li1043        0.0374    0.3946    0.1281
Li    Li1044        0.0826    0.3554    0.4813
Li    Li1045        0.1701    0.3497    0.2718
Li    Li1046        0.0373    0.3489    0.2778
Li    Li1047        0.2084    0.3516    0.4788
Li    Li1048        0.2116    0.2974    0.3521
Li    Li1049        0.0407    0.3942    0.3852
Li    Li1050        0.1595    0.3124    0.3861
Li    Li1051        0.0357    0.3474    0.5128
Li    Li1052        0.1968    0.3099    0.6225
Li    Li1053        0.0822    0.3588    0.9826
Li    Li1054        0.1649    0.3540    0.7699
Li    Li1055        0.2025    0.3431    0.9820
Li    Li1056        0.1938    0.3102    0.8629
Li    Li1057        0.2043    0.3994    0.1158
Li    Li1058        0.0520    0.4952    0.1379
Li    Li1059        0.0763    0.4991    0.1080
Li    Li1060        0.1662    0.4400    0.2646
Li    Li1061        0.0388    0.4597    0.2613
Li    Li1062        0.2033    0.4481    0.5017
Li    Li1063        0.2052    0.4043    0.3555
Li    Li1064        0.1660    0.4032    0.3759
Li    Li1065        0.0914    0.4931    0.3602
Li    Li1066        0.0495    0.4672    0.5080
Li    Li1067        0.2016    0.4424    0.7368
Li    Li1068        0.1702    0.4030    0.6299
Li    Li1069        0.0511    0.4419    0.7591
Li    Li1070        0.1993    0.4382    0.9913
Li    Li1071        0.2007    0.4078    0.8568
Li    Li1072        0.0760    0.4922    0.8639
Li    Li1073        0.0892    0.5989    0.1186
Li    Li1074        0.0423    0.5575    0.2658
Li    Li1075        0.2150    0.4888    0.3731
Li    Li1076        0.0995    0.5918    0.3825
Li    Li1077        0.0392    0.6015    0.6408
Li    Li1078        0.0866    0.6516    0.2422
Li    Li1079        0.1693    0.6472    0.0042
Li    Li1080        0.0277    0.6621    0.0018
Li    Li1081        0.2058    0.6093    0.1075
Li    Li1082        0.0497    0.6829    0.1400
Li    Li1083        0.1621    0.5991    0.1522
Li    Li1084        0.0922    0.6513    0.4722
Li    Li1085        0.2046    0.6365    0.4897
Li    Li1086        0.1968    0.6118    0.3690
Li    Li1087        0.1655    0.6043    0.3921
Li    Li1088        0.1593    0.6457    0.5111
Li    Li1089        0.0377    0.6941    0.6446
Li    Li1090        0.2068    0.6402    0.9796
Li    Li1091        0.0485    0.6945    0.8918
Li    Li1092        0.1913    0.7331    0.9958
Li    Li1093        0.2010    0.6977    0.3573
Li    Li1094        0.1635    0.7499    0.5213
Li    Li1095        0.1703    0.6964    0.6285
Li    Li1096        0.0467    0.8541    0.2663
Li    Li1097        0.0759    0.9615    0.4830
Li    Li1098        0.2068    0.9099    0.3581
Li    Li1099        0.1656    0.9142    0.3991
Li    Li1100        0.1650    0.9479    0.5109
Li    Li1101        0.3349    0.0667    0.2373
Li    Li1102        0.4590    0.0429    0.4890
Li    Li1103        0.4144    0.1497    0.0035
Li    Li1104        0.3034    0.1886    0.1286
Li    Li1105        0.3305    0.1930    0.1084
Li    Li1106        0.4632    0.1134    0.3599
Li    Li1107        0.4204    0.1049    0.3811
Li    Li1108        0.3295    0.1633    0.7357
Li    Li1109        0.4081    0.1458    0.5132
Li    Li1110        0.4177    0.1398    0.7633
Li    Li1111        0.4592    0.1466    0.9920
Li    Li1112        0.2908    0.2084    0.8916
Li    Li1113        0.4301    0.1182    0.8823
Li    Li1114        0.4067    0.2380    0.0251
Li    Li1115        0.2966    0.2601    0.0116
Li    Li1116        0.4270    0.2137    0.1032
Li    Li1117        0.4221    0.1931    0.1512
Li    Li1118        0.3220    0.2936    0.1153
Li    Li1119        0.4127    0.2391    0.2670
Li    Li1120        0.4563    0.2372    0.7268
Li    Li1121        0.3313    0.2460    0.9813
Li    Li1122        0.2997    0.2618    0.7657
Li    Li1123        0.4200    0.2120    0.8900
Li    Li1124        0.3278    0.3058    0.8515
Li    Li1125        0.3270    0.3641    0.2369
Li    Li1126        0.4196    0.3367    0.0185
Li    Li1127        0.2923    0.3612    0.0152
Li    Li1128        0.4580    0.3384    0.2331
Li    Li1129        0.4596    0.2975    0.1098
Li    Li1130        0.3054    0.4024    0.1290
Li    Li1131        0.4147    0.3112    0.1369
Li    Li1132        0.3248    0.3960    0.1111
Li    Li1133        0.4195    0.3516    0.2673
Li    Li1134        0.4556    0.3544    0.7312
Li    Li1135        0.4586    0.3030    0.6088
Li    Li1136        0.3028    0.3970    0.6393
Li    Li1137        0.3031    0.3463    0.7556
Li    Li1138        0.4158    0.2987    0.8903
Li    Li1139        0.2931    0.4400    0.0361
Li    Li1140        0.4525    0.4537    0.2314
Li    Li1141        0.3191    0.4834    0.1166
Li    Li1142        0.4129    0.4527    0.2759
Li    Li1143        0.4591    0.4491    0.4852
Li    Li1144        0.2886    0.5042    0.3935
Li    Li1145        0.3335    0.4516    0.7350
Li    Li1146        0.4510    0.4108    0.8663
Li    Li1147        0.4581    0.5533    0.2325
Li    Li1148        0.4595    0.4973    0.1030
Li    Li1149        0.2923    0.5952    0.3926
Li    Li1150        0.3274    0.5529    0.9895
Li    Li1151        0.2900    0.6064    0.9052
Li    Li1152        0.3384    0.6484    0.2463
Li    Li1153        0.4644    0.6382    0.2387
Li    Li1154        0.4547    0.6120    0.1104
Li    Li1155        0.2903    0.6983    0.1473
Li    Li1156        0.3349    0.6905    0.1019
Li    Li1157        0.3395    0.6473    0.4784
Li    Li1158        0.4584    0.6509    0.4874
Li    Li1159        0.2925    0.6996    0.3722
Li    Li1160        0.2734    0.6573    0.5022
Li    Li1161        0.2954    0.6599    0.7663
Li    Li1162        0.4467    0.6376    0.9881
Li    Li1163        0.4605    0.5915    0.8429
Li    Li1164        0.4189    0.7376    0.0168
Li    Li1165        0.4199    0.7502    0.2647
Li    Li1166        0.4465    0.7352    0.9741
Li    Li1167        0.4500    0.8390    0.4799
Li    Li1168        0.4589    0.8051    0.3590
Li    Li1169        0.4323    0.8490    0.5121
Li    Li1170        0.2955    0.8540    0.5146
Li    Li1171        0.4575    0.8112    0.6079
Li    Li1172        0.3276    0.8941    0.6062
Li    Li1173        0.2942    0.8440    0.7614
Li    Li1174        0.4260    0.9413    0.5026
Li    Li1175        0.7102    0.0465    0.2314
Li    Li1176        0.5505    0.0948    0.3799
Li    Li1177        0.6970    0.1044    0.1122
Li    Li1178        0.6621    0.1162    0.1351
Li    Li1179        0.5811    0.1996    0.3730
Li    Li1180        0.7135    0.1515    0.9816
Li    Li1181        0.5752    0.2011    0.8638
Li    Li1182        0.7062    0.2369    0.2403
Li    Li1183        0.6649    0.2019    0.1392
Li    Li1184        0.5461    0.2602    0.2669
Li    Li1185        0.7066    0.2464    0.4823
Li    Li1186        0.5837    0.2941    0.3601
Li    Li1187        0.6651    0.2510    0.5176
Li    Li1188        0.5861    0.3082    0.6055
Li    Li1189        0.7014    0.2069    0.8601
Li    Li1190        0.5472    0.3644    0.0173
Li    Li1191        0.7166    0.2990    0.1212
Li    Li1192        0.5983    0.3945    0.1261
Li    Li1193        0.5797    0.3569    0.4869
Li    Li1194        0.5404    0.3467    0.2643
Li    Li1195        0.5466    0.4038    0.3897
Li    Li1196        0.6725    0.3562    0.5159
Li    Li1197        0.7143    0.3498    0.9666
Li    Li1198        0.6701    0.3070    0.8924
Li    Li1199        0.6695    0.4081    0.1438
Li    Li1200        0.5449    0.4979    0.3896
Li    Li1201        0.5770    0.4913    0.3599
Li    Li1202        0.7152    0.4484    0.7323
Li    Li1203        0.7119    0.4051    0.6124
Li    Li1204        0.5759    0.4979    0.6096
Li    Li1205        0.5788    0.4482    0.9867
Li    Li1206        0.6956    0.4040    0.8708
Li    Li1207        0.5753    0.5515    0.2280
Li    Li1208        0.7021    0.5500    0.2235
Li    Li1209        0.7032    0.5439    0.4889
Li    Li1210        0.5569    0.6125    0.3801
Li    Li1211        0.6608    0.4912    0.3986
Li    Li1212        0.5802    0.6038    0.3526
Li    Li1213        0.5926    0.5509    0.7571
Li    Li1214        0.5395    0.6033    0.6416
Li    Li1215        0.5780    0.6008    0.6047
Li    Li1216        0.5860    0.5545    0.9931
Li    Li1217        0.6634    0.5513    0.7722
Li    Li1218        0.7014    0.5086    0.8608
Li    Li1219        0.5384    0.5881    0.8888
Li    Li1220        0.5792    0.6456    0.2455
Li    Li1221        0.6510    0.6056    0.1239
Li    Li1222        0.5849    0.6543    0.4847
Li    Li1223        0.7125    0.6460    0.4727
Li    Li1224        0.7108    0.6419    0.7292
Li    Li1225        0.6726    0.6038    0.6340
Li    Li1226        0.7052    0.6458    0.9780
Li    Li1227        0.6758    0.7461    0.2621
Li    Li1228        0.7040    0.6992    0.3566
Li    Li1229        0.5504    0.8025    0.3912
Li    Li1230        0.5679    0.8043    0.3688
Li    Li1231        0.5816    0.8605    0.7343
Li    Li1232        0.5399    0.9099    0.6379
Li    Li1233        0.5817    0.8927    0.6076
Li    Li1234        0.6704    0.9400    0.5167
Li    Li1235        0.9440    0.0338    0.2487
Li    Li1236        0.9161    0.0482    0.2742
Li    Li1237        0.9638    0.0522    0.4638
Li    Li1238        0.9229    0.0041    0.3767
Li    Li1239        0.8250    0.1567    0.2383
Li    Li1240        0.9570    0.1498    0.2353
Li    Li1241        0.7892    0.1512    0.2782
Li    Li1242        0.9751    0.0921    0.3726
Li    Li1243        0.7968    0.1953    0.3922
Li    Li1244        0.8004    0.1519    0.5104
Li    Li1245        0.8311    0.2543    0.2381
Li    Li1246        0.7898    0.2608    0.0173
Li    Li1247        0.9571    0.2358    0.2294
Li    Li1248        0.9211    0.2099    0.1434
Li    Li1249        0.9334    0.2421    0.2570
Li    Li1250        0.7929    0.2503    0.2611
Li    Li1251        0.9537    0.1969    0.3601
Li    Li1252        0.7833    0.3046    0.4085
Li    Li1253        0.8346    0.2539    0.7355
Li    Li1254        0.8113    0.2327    0.4966
Li    Li1255        0.7903    0.3032    0.6547
Li    Li1256        0.7916    0.2512    0.7569
Li    Li1257        0.8261    0.3552    0.2309
Li    Li1258        0.9134    0.3568    0.0166
Li    Li1259        0.8017    0.4042    0.1406
Li    Li1260        0.9154    0.3089    0.1461
Li    Li1261        0.8277    0.3630    0.4767
Li    Li1262        0.8084    0.3689    0.2480
Li    Li1263        0.9610    0.3058    0.3606
Li    Li1264        0.8301    0.3605    0.7317
Li    Li1265        0.7977    0.3655    0.5067
Li    Li1266        0.8010    0.3986    0.6387
Li    Li1267        0.9185    0.3095    0.6320
Li    Li1268        0.8021    0.3522    0.7588
Li    Li1269        0.9249    0.4551    0.0141
Li    Li1270        0.9595    0.4015    0.1068
Li    Li1271        0.8294    0.4516    0.4834
Li    Li1272        0.7919    0.4967    0.3997
Li    Li1273        0.7905    0.4865    0.6395
Li    Li1274        0.8307    0.4938    0.6037
Li    Li1275        0.8339    0.4557    0.9864
Li    Li1276        0.7944    0.4470    0.7478
Li    Li1277        0.7922    0.4935    0.8910
Li    Li1278        0.8393    0.4983    0.8763
Li    Li1279        0.8343    0.6002    0.3607
Li    Li1280        0.8305    0.5458    0.7293
Li    Li1281        0.8310    0.5948    0.6119
Li    Li1282        0.9237    0.5546    0.7598
Li    Li1283        0.9159    0.6511    0.0178
Li    Li1284        0.9423    0.6057    0.1106
Li    Li1285        0.9517    0.5925    0.3632
Li    Li1286        0.7934    0.6906    0.3937
Li    Li1287        0.8314    0.6977    0.3683
Li    Li1288        0.9558    0.6427    0.7359
Li    Li1289        0.9700    0.5976    0.6234
Li    Li1290        0.7931    0.6540    0.7644
Li    Li1291        0.8003    0.6928    0.8866
Li    Li1292        0.9044    0.6081    0.8737
Li    Li1293        0.8297    0.6933    0.8634
Li    Li1294        0.9186    0.7502    0.0178
Li    Li1295        0.9463    0.7450    0.2463
Li    Li1296        0.9596    0.7118    0.0994
Li    Li1297        0.9272    0.6967    0.6400
Li    Li1298        0.9114    0.7532    0.7575
Li    Li1299        0.9490    0.7395    0.9830
Li    Li1300        0.9509    0.7069    0.8649
Li    Li1301        0.7921    0.9620    0.5209
Li    Li1302        0.1301    0.0151    0.1001
Li    Li1303        0.1311    0.0866    0.1548
Li    Li1304        0.1481    0.0315    0.2302
Li    Li1305        0.2311    0.0614    0.2198
Li    Li1306        0.9891    0.0174    0.3971
Li    Li1307        0.1124    0.0882    0.3994
Li    Li1308        0.1207    0.0402    0.4770
Li    Li1309        0.9802    0.0343    0.2811
Li    Li1310        0.1273    0.1156    0.1130
Li    Li1311        0.1143    0.1882    0.1552
Li    Li1312        0.1286    0.1423    0.2194
Li    Li1313        0.2547    0.1576    0.2173
Li    Li1314        0.0020    0.1064    0.4007
Li    Li1315        0.1242    0.1038    0.3410
Li    Li1316        0.1428    0.1717    0.2661
Li    Li1317        0.1188    0.1397    0.4785
Li    Li1318        0.2637    0.1606    0.4678
Li    Li1319        0.9886    0.1389    0.2891
Li    Li1320        0.1197    0.1124    0.5971
Li    Li1321        0.1162    0.1955    0.6622
Li    Li1322        0.1280    0.1591    0.5391
Li    Li1323        0.2699    0.1876    0.8543
Li    Li1324        0.1163    0.1870    0.9135
Li    Li1325        0.1148    0.1671    0.7938
Li    Li1326        0.1279    0.1425    0.9603
Li    Li1327        0.1187    0.2051    0.1170
Li    Li1328        0.0090    0.2122    0.4044
Li    Li1329        0.2573    0.2897    0.3337
Li    Li1330        0.1259    0.2925    0.3960
Li    Li1331        0.2503    0.2661    0.4634
Li    Li1332        0.1235    0.2221    0.5944
Li    Li1333        0.1185    0.2907    0.6529
Li    Li1334        0.1140    0.2608    0.5170
Li    Li1335        0.1361    0.2385    0.7260
Li    Li1336        0.0198    0.2341    0.5357
Li    Li1337        0.2557    0.2844    0.8522
Li    Li1338        0.1139    0.2920    0.9075
Li    Li1339        0.2478    0.2647    0.9743
Li    Li1340        0.9944    0.2463    0.7778
Li    Li1341        0.0123    0.3162    0.1588
Li    Li1342        0.1248    0.3117    0.0868
Li    Li1343        0.1119    0.3801    0.1532
Li    Li1344        0.1240    0.3645    0.0276
Li    Li1345        0.1419    0.3395    0.2303
Li    Li1346        0.2505    0.3550    0.2185
Li    Li1347        0.9933    0.3441    0.0302
Li    Li1348        0.0129    0.3112    0.4053
Li    Li1349        0.2476    0.3875    0.3437
Li    Li1350        0.1396    0.3841    0.3990
Li    Li1351        0.2314    0.3618    0.4649
Li    Li1352        0.9916    0.3408    0.2919
Li    Li1353        0.9991    0.3018    0.6538
Li    Li1354        0.2576    0.3840    0.6097
Li    Li1355        0.1214    0.3082    0.6006
Li    Li1356        0.1306    0.3872    0.6476
Li    Li1357        0.1315    0.3618    0.5207
Li    Li1358        0.1266    0.3392    0.7278
Li    Li1359        0.2284    0.3870    0.8451
Li    Li1360        0.1188    0.3113    0.8474
Li    Li1361        0.1288    0.3666    0.7827
Li    Li1362        0.2587    0.4912    0.0927
Li    Li1363        0.1127    0.4388    0.2244
Li    Li1364        0.0008    0.4363    0.0267
Li    Li1365        0.9937    0.4112    0.4037
Li    Li1366        0.2587    0.4914    0.3439
Li    Li1367        0.1406    0.4167    0.3423
Li    Li1368        0.1273    0.4876    0.4005
Li    Li1369        0.1301    0.4551    0.2637
Li    Li1370        0.1311    0.4361    0.4693
Li    Li1371        0.1325    0.4115    0.5963
Li    Li1372        0.1233    0.4389    0.7196
Li    Li1373        0.9848    0.4218    0.8938
Li    Li1374        0.2601    0.4647    0.9773
Li    Li1375        0.1262    0.5136    0.1085
Li    Li1376        0.9884    0.5426    0.0174
Li    Li1377        0.2692    0.5873    0.3331
Li    Li1378        0.1527    0.5148    0.3355
Li    Li1379        0.1179    0.5973    0.4102
Li    Li1380        0.1278    0.5610    0.2812
Li    Li1381        0.9841    0.5403    0.2979
Li    Li1382        0.9892    0.5199    0.8966
Li    Li1383        0.0092    0.6197    0.1533
Li    Li1384        0.2449    0.6873    0.0922
Li    Li1385        0.1339    0.6191    0.0954
Li    Li1386        0.0050    0.6418    0.0268
Li    Li1387        0.9928    0.6223    0.4107
Li    Li1388        0.1294    0.6170    0.3547
Li    Li1389        0.1133    0.6798    0.3989
Li    Li1390        0.1356    0.6586    0.2746
Li    Li1391        0.2491    0.6582    0.4733
Li    Li1392        0.0206    0.6417    0.2724
Li    Li1393        0.9881    0.6120    0.6543
Li    Li1394        0.2367    0.6882    0.5998
Li    Li1395        0.2573    0.6606    0.9678
Li    Li1396        0.9967    0.7134    0.1513
Li    Li1397        0.1256    0.7132    0.3533
Li    Li1398        0.1250    0.7403    0.4802
Li    Li1399        0.9907    0.7312    0.2749
Li    Li1400        0.0066    0.7091    0.6586
Li    Li1401        0.1450    0.7592    0.5317
Li    Li1402        0.2291    0.7525    0.9694
Li    Li1403        0.2496    0.8848    0.3433
Li    Li1404        0.1204    0.8919    0.4140
Li    Li1405        0.2685    0.8664    0.4818
Li    Li1406        0.2711    0.8714    0.7317
Li    Li1407        0.2500    0.8846    0.8433
Li    Li1408        0.1206    0.9873    0.1516
Li    Li1409        0.1169    0.9644    0.0239
Li    Li1410        0.1204    0.9927    0.4017
Li    Li1411        0.1257    0.9362    0.4698
Li    Li1412        0.3537    0.0388    0.2194
Li    Li1413        0.5041    0.0856    0.3494
Li    Li1414        0.2643    0.0296    0.2803
Li    Li1415        0.3821    0.0896    0.8988
Li    Li1416        0.3661    0.1696    0.1438
Li    Li1417        0.3818    0.1355    0.2106
Li    Li1418        0.5045    0.1877    0.3535
Li    Li1419        0.3748    0.1988    0.3991
Li    Li1420        0.3822    0.1418    0.4693
Li    Li1421        0.5332    0.1665    0.4631
Li    Li1422        0.3758    0.1593    0.5313
Li    Li1423        0.3898    0.1452    0.7098
Li    Li1424        0.4830    0.1620    0.7217
Li    Li1425        0.3778    0.1903    0.8960
Li    Li1426        0.3596    0.1664    0.7901
Li    Li1427        0.3811    0.1363    0.9723
Li    Li1428        0.5075    0.1519    0.9579
Li    Li1429        0.5073    0.2947    0.0938
Li    Li1430        0.3715    0.2895    0.1572
Li    Li1431        0.3702    0.2539    0.0326
Li    Li1432        0.3695    0.2425    0.2206
Li    Li1433        0.4983    0.2624    0.2188
Li    Li1434        0.2510    0.2362    0.0308
Li    Li1435        0.2466    0.2119    0.4012
Li    Li1436        0.3671    0.2102    0.3472
Li    Li1437        0.3778    0.2413    0.4564
Li    Li1438        0.5265    0.2754    0.4847
Li    Li1439        0.2380    0.2153    0.6478
Li    Li1440        0.3827    0.2001    0.5875
Li    Li1441        0.3705    0.2918    0.6529
Li    Li1442        0.3553    0.2347    0.7216
Li    Li1443        0.5015    0.2605    0.7136
Li    Li1444        0.2562    0.2125    0.9097
Li    Li1445        0.5046    0.2789    0.8641
Li    Li1446        0.3732    0.2154    0.8423
Li    Li1447        0.3956    0.2701    0.8949
Li    Li1448        0.3569    0.2650    0.7869
Li    Li1449        0.3832    0.2376    0.9707
Li    Li1450        0.5021    0.2587    0.9656
Li    Li1451        0.2394    0.2401    0.7917
Li    Li1452        0.2644    0.3163    0.1515
Li    Li1453        0.5178    0.3845    0.0939
Li    Li1454        0.3814    0.3968    0.1501
Li    Li1455        0.3660    0.3668    0.0275
Li    Li1456        0.5125    0.3673    0.2255
Li    Li1457        0.2487    0.3354    0.0218
Li    Li1458        0.5129    0.3949    0.3413
Li    Li1459        0.3725    0.3798    0.3941
Li    Li1460        0.2347    0.3131    0.6603
Li    Li1461        0.5139    0.3871    0.6000
Li    Li1462        0.3855    0.3858    0.6492
Li    Li1463        0.3803    0.3453    0.7146
Li    Li1464        0.2444    0.3212    0.8984
Li    Li1465        0.3980    0.3128    0.8429
Li    Li1466        0.3805    0.3376    0.9737
Li    Li1467        0.4957    0.3623    0.9733
Li    Li1468        0.2458    0.4215    0.1528
Li    Li1469        0.5131    0.4851    0.0798
Li    Li1470        0.3733    0.4153    0.0955
Li    Li1471        0.3577    0.4869    0.1669
Li    Li1472        0.5117    0.4729    0.3503
Li    Li1473        0.3788    0.4397    0.4701
Li    Li1474        0.5156    0.4662    0.4716
Li    Li1475        0.2611    0.4116    0.6548
Li    Li1476        0.4962    0.4833    0.5930
Li    Li1477        0.3790    0.4616    0.5094
Li    Li1478        0.3848    0.4376    0.7240
Li    Li1479        0.2447    0.4421    0.5292
Li    Li1480        0.2425    0.4029    0.9084
Li    Li1481        0.3679    0.4911    0.9112
Li    Li1482        0.3673    0.4582    0.7833
Li    Li1483        0.3793    0.5916    0.1515
Li    Li1484        0.4832    0.5637    0.2347
Li    Li1485        0.2452    0.5139    0.3984
Li    Li1486        0.5029    0.5949    0.3360
Li    Li1487        0.3609    0.5163    0.3419
Li    Li1488        0.3566    0.5822    0.4039
Li    Li1489        0.3848    0.5887    0.6544
Li    Li1490        0.3632    0.5759    0.8974
Li    Li1491        0.2315    0.6163    0.1596
Li    Li1492        0.4988    0.6896    0.0874
Li    Li1493        0.3912    0.6371    0.1050
Li    Li1494        0.3705    0.6707    0.0280
Li    Li1495        0.3782    0.6444    0.2114
Li    Li1496        0.4915    0.6555    0.2303
Li    Li1497        0.2327    0.6389    0.0331
Li    Li1498        0.2550    0.6085    0.4037
Li    Li1499        0.3802    0.6082    0.3378
Li    Li1500        0.3577    0.6677    0.2812
Li    Li1501        0.3743    0.6325    0.4810
Li    Li1502        0.2492    0.6390    0.2796
Li    Li1503        0.5029    0.6882    0.5929
Li    Li1504        0.3914    0.6616    0.5307
Li    Li1505        0.3770    0.6371    0.7312
Li    Li1506        0.5082    0.6638    0.7230
Li    Li1507        0.2292    0.6068    0.9110
Li    Li1508        0.3870    0.6072    0.8336
Li    Li1509        0.3687    0.6983    0.9117
Li    Li1510        0.3797    0.6647    0.7755
Li    Li1511        0.3764    0.6355    0.9798
Li    Li1512        0.2447    0.6434    0.7830
Li    Li1513        0.3985    0.7566    0.0302
Li    Li1514        0.3857    0.7412    0.2177
Li    Li1515        0.5128    0.7685    0.2374
Li    Li1516        0.2397    0.7325    0.0213
Li    Li1517        0.2614    0.7116    0.4135
Li    Li1518        0.5043    0.7906    0.3528
Li    Li1519        0.5132    0.7607    0.4600
Li    Li1520        0.2473    0.7109    0.6570
Li    Li1521        0.4772    0.7822    0.5917
Li    Li1522        0.3814    0.7401    0.7202
Li    Li1523        0.2484    0.7052    0.9154
Li    Li1524        0.3841    0.8846    0.4032
Li    Li1525        0.3602    0.8392    0.4755
Li    Li1526        0.2487    0.8408    0.2900
Li    Li1527        0.4952    0.8941    0.5967
Li    Li1528        0.2483    0.9071    0.4092
Li    Li1529        0.5119    0.9845    0.3613
Li    Li1530        0.3763    0.9418    0.4777
Li    Li1531        0.2420    0.9414    0.2853
Li    Li1532        0.3792    0.9078    0.5919
Li    Li1533        0.3782    0.9588    0.5287
Li    Li1534        0.2541    0.9347    0.5316
Li    Li1535        0.7627    0.0596    0.2172
Li    Li1536        0.5040    0.0107    0.4056
Li    Li1537        0.7582    0.0917    0.3414
Li    Li1538        0.6336    0.0172    0.3494
Li    Li1539        0.6523    0.0707    0.2715
Li    Li1540        0.7578    0.1979    0.0911
Li    Li1541        0.6037    0.1237    0.1107
Li    Li1542        0.6107    0.1938    0.1553
Li    Li1543        0.6095    0.1386    0.2087
Li    Li1544        0.7602    0.1675    0.2282
Li    Li1545        0.5169    0.1089    0.4034
Li    Li1546        0.7541    0.1881    0.3480
Li    Li1547        0.6153    0.1105    0.3538
Li    Li1548        0.4868    0.1402    0.2836
Li    Li1549        0.7687    0.1868    0.8473
Li    Li1550        0.6044    0.1870    0.9119
Li    Li1551        0.6081    0.1340    0.9723
Li    Li1552        0.7549    0.1559    0.9657
Li    Li1553        0.4991    0.1384    0.7779
Li    Li1554        0.4958    0.2067    0.1572
Li    Li1555        0.7507    0.2882    0.0854
Li    Li1556        0.6194    0.2139    0.1010
Li    Li1557        0.6353    0.2694    0.0285
Li    Li1558        0.7508    0.2621    0.2177
Li    Li1559        0.6275    0.2114    0.3474
Li    Li1560        0.6135    0.2697    0.3958
Li    Li1561        0.5189    0.2395    0.2888
Li    Li1562        0.7372    0.2856    0.5972
Li    Li1563        0.6365    0.2131    0.5731
Li    Li1564        0.6417    0.2845    0.6583
Li    Li1565        0.6098    0.2568    0.5433
Li    Li1566        0.7437    0.2622    0.7178
Li    Li1567        0.4868    0.2104    0.9038
Li    Li1568        0.7336    0.2881    0.8540
Li    Li1569        0.6258    0.2128    0.8505
Li    Li1570        0.6267    0.2882    0.9066
Li    Li1571        0.6243    0.2656    0.7675
Li    Li1572        0.5173    0.3066    0.1452
Li    Li1573        0.7684    0.3801    0.0994
Li    Li1574        0.6423    0.3174    0.0950
Li    Li1575        0.6292    0.3823    0.1515
Li    Li1576        0.6394    0.3521    0.0131
Li    Li1577        0.6077    0.3314    0.2241
Li    Li1578        0.5034    0.3397    0.0267
Li    Li1579        0.6261    0.3150    0.3485
Li    Li1580        0.6372    0.3643    0.2803
Li    Li1581        0.4861    0.3104    0.6629
Li    Li1582        0.7563    0.3877    0.5976
Li    Li1583        0.6306    0.3165    0.6065
Li    Li1584        0.7530    0.3599    0.7022
Li    Li1585        0.4870    0.3158    0.9007
Li    Li1586        0.7317    0.3863    0.8481
Li    Li1587        0.6365    0.3246    0.8564
Li    Li1588        0.6153    0.4131    0.0947
Li    Li1589        0.6104    0.4777    0.0277
Li    Li1590        0.4888    0.4107    0.4042
Li    Li1591        0.5975    0.4821    0.4145
Li    Li1592        0.6177    0.4382    0.4736
Li    Li1593        0.4859    0.4425    0.2880
Li    Li1594        0.6135    0.4846    0.6504
Li    Li1595        0.6330    0.4572    0.5256
Li    Li1596        0.7667    0.4750    0.7279
Li    Li1597        0.4917    0.4214    0.5200
Li    Li1598        0.4877    0.4099    0.9058
Li    Li1599        0.7638    0.4716    0.8483
Li    Li1600        0.6370    0.4832    0.8980
Li    Li1601        0.6206    0.4729    0.7724
Li    Li1602        0.5200    0.5173    0.1523
Li    Li1603        0.6207    0.5107    0.0978
Li    Li1604        0.6110    0.5833    0.1577
Li    Li1605        0.7437    0.5608    0.2222
Li    Li1606        0.5132    0.5318    0.0352
Li    Li1607        0.7493    0.5899    0.3424
Li    Li1608        0.6302    0.5090    0.3446
Li    Li1609        0.6284    0.5921    0.4093
Li    Li1610        0.6225    0.5558    0.2779
Li    Li1611        0.6353    0.5284    0.4745
Li    Li1612        0.5076    0.5369    0.2765
Li    Li1613        0.6195    0.5424    0.7281
Li    Li1614        0.6143    0.5143    0.8487
Li    Li1615        0.6205    0.5826    0.9000
Li    Li1616        0.6196    0.5552    0.7866
Li    Li1617        0.6223    0.5380    0.9769
Li    Li1618        0.4969    0.6091    0.1714
Li    Li1619        0.6384    0.6181    0.1044
Li    Li1620        0.7693    0.6822    0.3543
Li    Li1621        0.6024    0.6068    0.3414
Li    Li1622        0.6441    0.6708    0.3956
Li    Li1623        0.6212    0.6602    0.2883
Li    Li1624        0.6378    0.6338    0.4732
Li    Li1625        0.7408    0.6602    0.4718
Li    Li1626        0.4820    0.6106    0.6490
Li    Li1627        0.6237    0.6107    0.5916
Li    Li1628        0.6439    0.6619    0.5293
Li    Li1629        0.6390    0.6419    0.7133
Li    Li1630        0.7582    0.6674    0.7317
Li    Li1631        0.4930    0.6058    0.9105
Li    Li1632        0.6200    0.7471    0.2281
Li    Li1633        0.6241    0.7082    0.3470
Li    Li1634        0.6370    0.7861    0.4068
Li    Li1635        0.6277    0.7604    0.2789
Li    Li1636        0.7587    0.7646    0.4670
Li    Li1637        0.5010    0.7424    0.2898
Li    Li1638        0.5117    0.7095    0.6448
Li    Li1639        0.6284    0.7043    0.5861
Li    Li1640        0.4960    0.8131    0.4041
Li    Li1641        0.4875    0.8338    0.5244
Li    Li1642        0.7493    0.9949    0.3386
Li    Li1643        0.6339    0.9326    0.4771
Li    Li1644        0.6209    0.9095    0.5877
Li    Li1645        0.8934    0.0393    0.2190
Li    Li1646        0.7560    0.0093    0.4018
Li    Li1647        0.8848    0.0179    0.3529
Li    Li1648        0.8868    0.0843    0.4035
Li    Li1649        0.8783    0.0633    0.2861
Li    Li1650        0.0130    0.0556    0.4676
Li    Li1651        0.7485    0.1116    0.1497
Li    Li1652        0.8671    0.1958    0.1655
Li    Li1653        0.8960    0.1284    0.2256
Li    Li1654        0.9990    0.1581    0.2180
Li    Li1655        0.7432    0.1467    0.0340
Li    Li1656        0.9988    0.1919    0.3438
Li    Li1657        0.8810    0.1025    0.3483
Li    Li1658        0.8731    0.1628    0.2810
Li    Li1659        0.8652    0.1350    0.4707
Li    Li1660        0.0098    0.1646    0.7335
Li    Li1661        0.7313    0.1110    0.9067
Li    Li1662        0.8787    0.2203    0.1053
Li    Li1663        0.8728    0.2835    0.1507
Li    Li1664        0.8887    0.2640    0.0314
Li    Li1665        0.8765    0.2388    0.2183
Li    Li1666        0.9800    0.2577    0.2325
Li    Li1667        0.7453    0.2295    0.0240
Li    Li1668        0.7515    0.2109    0.4118
Li    Li1669        0.8854    0.2099    0.3355
Li    Li1670        0.8774    0.2607    0.2857
Li    Li1671        0.8592    0.2922    0.6673
Li    Li1672        0.8745    0.2399    0.7317
Li    Li1673        0.9928    0.2638    0.7218
Li    Li1674        0.7393    0.2360    0.5446
Li    Li1675        0.7451    0.2283    0.9044
Li    Li1676        0.0167    0.2853    0.8404
Li    Li1677        0.8715    0.2121    0.8424
Li    Li1678        0.8761    0.2635    0.7804
Li    Li1679        0.0105    0.2743    0.9877
Li    Li1680        0.7596    0.3053    0.1442
Li    Li1681        0.0051    0.3948    0.0852
Li    Li1682        0.8700    0.3100    0.1037
Li    Li1683        0.8849    0.3367    0.2225
Li    Li1684        0.0049    0.3721    0.2286
Li    Li1685        0.7458    0.3288    0.0160
Li    Li1686        0.7545    0.3067    0.4087
Li    Li1687        0.8819    0.3085    0.3299
Li    Li1688        0.8884    0.3662    0.2771
Li    Li1689        0.8616    0.3341    0.4724
Li    Li1690        0.7270    0.3236    0.2669
Li    Li1691        0.7549    0.3154    0.6554
Li    Li1692        0.0023    0.3831    0.6020
Li    Li1693        0.8843    0.3117    0.5854
Li    Li1694        0.8650    0.3953    0.6656
Li    Li1695        0.8786    0.3520    0.5168
Li    Li1696        0.8720    0.3396    0.7235
Li    Li1697        0.7324    0.3110    0.9080
Li    Li1698        0.8764    0.3936    0.9094
Li    Li1699        0.8740    0.3686    0.7730
Li    Li1700        0.0067    0.3460    0.9726
Li    Li1701        0.7597    0.3293    0.7806
Li    Li1702        0.0024    0.4852    0.1044
Li    Li1703        0.0096    0.4625    0.2176
Li    Li1704        0.8602    0.4874    0.3962
Li    Li1705        0.8810    0.4313    0.4767
Li    Li1706        0.8581    0.4852    0.6663
Li    Li1707        0.8599    0.4614    0.5334
Li    Li1708        0.8585    0.4380    0.7174
Li    Li1709        0.7345    0.4120    0.9164
Li    Li1710        0.0026    0.4908    0.8431
Li    Li1711        0.8791    0.4176    0.8519
Li    Li1712        0.8639    0.4561    0.7853
Li    Li1713        0.8752    0.4314    0.9729
Li    Li1714        0.7513    0.4367    0.7831
Li    Li1715        0.0218    0.5928    0.0884
Li    Li1716        0.0081    0.5654    0.2283
Li    Li1717        0.7407    0.5106    0.4136
Li    Li1718        0.9992    0.5931    0.3435
Li    Li1719        0.8929    0.5842    0.4079
Li    Li1720        0.8911    0.5722    0.2700
Li    Li1721        0.7595    0.5391    0.2794
Li    Li1722        0.7601    0.5139    0.6579
Li    Li1723        0.8932    0.5955    0.6606
Li    Li1724        0.8809    0.5403    0.7203
Li    Li1725        0.7502    0.5398    0.5240
Li    Li1726        0.7676    0.5153    0.9052
Li    Li1727        0.8783    0.5131    0.8544
Li    Li1728        0.8838    0.5273    0.9823
Li    Li1729        0.7582    0.5409    0.7733
Li    Li1730        0.9944    0.6846    0.0947
Li    Li1731        0.8747    0.6643    0.0344
Li    Li1732        0.8926    0.6374    0.2179
Li    Li1733        0.0082    0.6579    0.2087
Li    Li1734        0.7540    0.6424    0.0325
Li    Li1735        0.8893    0.6137    0.3571
Li    Li1736        0.8848    0.6386    0.4705
Li    Li1737        0.9989    0.6585    0.4652
Li    Li1738        0.7495    0.6363    0.2808
Li    Li1739        0.8831    0.6832    0.6550
Li    Li1740        0.8804    0.6578    0.5373
Li    Li1741        0.8727    0.6959    0.9095
Li    Li1742        0.8615    0.6652    0.7783
Li    Li1743        0.8866    0.6305    0.9778
Li    Li1744        0.0009    0.6777    0.9730
Li    Li1745        0.7519    0.6395    0.7700
Li    Li1746        0.8693    0.7106    0.1001
Li    Li1747        0.9017    0.7179    0.6048
Li    Li1748        0.8931    0.7295    0.7358
Li    Li1749        0.7551    0.7138    0.9030
Li    Li1750        0.0114    0.8878    0.3491
Li    Li1751        0.9943    0.9941    0.3454
Li    Li1752        0.7455    0.9289    0.5228
