data_max_cluster
_audit_creation_method         'generated by data2config v5.5c'
 
_cell_length_a                  84.92680
_cell_length_b                  87.57400
_cell_length_c                  75.14280
_cell_angle_alpha               90.00000
_cell_angle_beta                96.73700
_cell_angle_gamma               90.00000
 
loop_
_symmetry_equiv_pos_as_xyz
'+x,+y,+z'
 
loop_
_atom_site_type_symbol
_atom_site_label
_atom_site_fract_x
_atom_site_fract_y
_atom_site_fract_z
Li    Li1        0.0905    0.0824    0.1531
Li    Li2        0.0327    0.0630    0.4531
Li    Li3        0.0905    0.0656    0.2733
Li    Li4        0.0353    0.0931    0.3302
Li    Li5        0.0329    0.0652    0.9701
Li    Li6        0.0937    0.0836    0.9015
Li    Li7        0.0429    0.0862    0.8347
Li    Li8        0.1555    0.1384    0.2198
Li    Li9        0.0891    0.1606    0.0381
Li    Li10        0.1627    0.1145    0.0931
Li    Li11        0.2119    0.1417    0.2890
Li    Li12        0.0874    0.1809    0.4116
Li    Li13        0.0345    0.1772    0.3497
Li    Li14        0.0838    0.1606    0.5268
Li    Li15        0.2078    0.1259    0.7698
Li    Li16        0.0887    0.1666    0.7904
Li    Li17        0.0314    0.2818    0.0795
Li    Li18        0.1709    0.2278    0.4791
Li    Li19        0.2089    0.2100    0.4118
Li    Li20        0.0421    0.2599    0.7224
Li    Li21        0.1603    0.2321    0.7179
Li    Li22        0.0842    0.2597    0.5585
Li    Li23        0.1613    0.2118    0.5960
Li    Li24        0.0283    0.2841    0.5959
Li    Li25        0.2162    0.2118    0.6661
Li    Li26        0.0269    0.3904    0.0873
Li    Li27        0.1691    0.3342    0.4782
Li    Li28        0.1514    0.3168    0.3319
Li    Li29        0.1615    0.3393    0.7186
Li    Li30        0.0938    0.3862    0.6662
Li    Li31        0.0380    0.3517    0.9532
Li    Li32        0.0838    0.4878    0.1596
Li    Li33        0.2137    0.4093    0.1678
Li    Li34        0.0878    0.4938    0.4168
Li    Li35        0.0356    0.4877    0.3356
Li    Li36        0.2146    0.4098    0.4208
Li    Li37        0.2170    0.4413    0.7878
Li    Li38        0.1641    0.4363    0.9561
Li    Li39        0.0852    0.4907    0.9055
Li    Li40        0.2071    0.4206    0.9090
Li    Li41        0.0408    0.5664    0.4672
Li    Li42        0.1605    0.5450    0.4576
Li    Li43        0.0880    0.5804    0.4117
Li    Li44        0.2041    0.5138    0.4234
Li    Li45        0.0812    0.5915    0.6696
Li    Li46        0.0292    0.5830    0.5859
Li    Li47        0.2091    0.6375    0.0327
Li    Li48        0.2129    0.6360    0.2958
Li    Li49        0.0972    0.6671    0.2770
Li    Li50        0.0983    0.6869    0.4059
Li    Li51        0.0411    0.6898    0.3326
Li    Li52        0.1580    0.6114    0.6013
Li    Li53        0.2137    0.6366    0.7924
Li    Li54        0.1662    0.6178    0.8451
Li    Li55        0.2079    0.7139    0.1599
Li    Li56        0.0378    0.7627    0.7175
Li    Li57        0.1602    0.7173    0.5882
Li    Li58        0.2173    0.7096    0.6681
Li    Li59        0.2091    0.7130    0.9181
Li    Li60        0.2115    0.8141    0.1616
Li    Li61        0.1508    0.8287    0.4674
Li    Li62        0.2086    0.8291    0.5350
Li    Li63        0.1538    0.9386    0.2167
Li    Li64        0.2163    0.9385    0.2956
Li    Li65        0.0431    0.9890    0.3305
Li    Li66        0.0232    0.9678    0.7263
Li    Li67        0.1671    0.9399    0.9569
Li    Li68        0.0894    0.9624    0.7941
Li    Li69        0.4865    0.1136    0.1458
Li    Li70        0.2885    0.1682    0.7293
Li    Li71        0.3485    0.1679    0.6473
Li    Li72        0.2869    0.1526    0.9548
Li    Li73        0.2868    0.1858    0.8389
Li    Li74        0.4628    0.1112    0.9204
Li    Li75        0.4178    0.2384    0.2080
Li    Li76        0.4584    0.2092    0.1678
Li    Li77        0.2912    0.2654    0.4577
Li    Li78        0.4658    0.2089    0.9161
Li    Li79        0.4179    0.3348    0.2083
Li    Li80        0.3420    0.3861    0.1660
Li    Li81        0.4118    0.3142    0.0897
Li    Li82        0.2921    0.3876    0.0864
Li    Li83        0.4655    0.3192    0.1543
Li    Li84        0.2865    0.3586    0.4703
Li    Li85        0.2836    0.3652    0.7081
Li    Li86        0.4102    0.3568    0.7041
Li    Li87        0.3420    0.3647    0.5349
Li    Li88        0.3388    0.3875    0.6679
Li    Li89        0.4188    0.3102    0.5969
Li    Li90        0.4134    0.3296    0.9812
Li    Li91        0.2873    0.3878    0.8437
Li    Li92        0.4178    0.4378    0.2090
Li    Li93        0.3354    0.4697    0.0309
Li    Li94        0.3410    0.4888    0.1546
Li    Li95        0.4535    0.4296    0.5327
Li    Li96        0.3392    0.4870    0.9136
Li    Li97        0.4582    0.5341    0.0227
Li    Li98        0.3448    0.5885    0.1610
Li    Li99        0.2770    0.5672    0.1100
Li    Li100        0.2797    0.5869    0.3401
Li    Li101        0.4070    0.5365    0.7159
Li    Li102        0.4727    0.5351    0.7802
Li    Li103        0.4158    0.5118    0.8321
Li    Li104        0.4611    0.6477    0.0361
Li    Li105        0.3486    0.6800    0.1549
Li    Li106        0.4110    0.6126    0.0987
Li    Li107        0.4811    0.6163    0.1545
Li    Li108        0.4570    0.6383    0.2792
Li    Li109        0.3348    0.6624    0.2939
Li    Li110        0.4140    0.6380    0.7001
Li    Li111        0.3456    0.6915    0.6576
Li    Li112        0.4147    0.6359    0.9701
Li    Li113        0.3326    0.6691    0.7755
Li    Li114        0.4739    0.6059    0.9158
Li    Li115        0.4611    0.7366    0.0375
Li    Li116        0.2914    0.7608    0.2179
Li    Li117        0.2814    0.7659    0.4635
Li    Li118        0.4108    0.7385    0.4688
Li    Li119        0.4024    0.7410    0.7132
Li    Li120        0.3328    0.7618    0.5239
Li    Li121        0.4626    0.7143    0.6644
Li    Li122        0.4034    0.8430    0.2132
Li    Li123        0.3316    0.8865    0.4136
Li    Li124        0.2905    0.8631    0.7079
Li    Li125        0.4102    0.8354    0.9716
Li    Li126        0.3356    0.8913    0.9216
Li    Li127        0.2913    0.8822    0.8460
Li    Li128        0.3399    0.9829    0.1630
Li    Li129        0.4104    0.9031    0.3304
Li    Li130        0.4606    0.9229    0.4020
Li    Li131        0.4201    0.9378    0.9603
Li    Li132        0.6597    0.0353    0.2171
Li    Li133        0.5930    0.0913    0.1579
Li    Li134        0.7160    0.1344    0.0238
Li    Li135        0.6614    0.1325    0.2116
Li    Li136        0.5927    0.1887    0.1670
Li    Li137        0.5366    0.1826    0.1002
Li    Li138        0.5939    0.1649    0.2801
Li    Li139        0.5402    0.1458    0.9609
Li    Li140        0.7076    0.1091    0.9136
Li    Li141        0.5936    0.2683    0.0486
Li    Li142        0.5473    0.2840    0.1072
Li    Li143        0.5784    0.2901    0.3981
Li    Li144        0.7078    0.2121    0.4077
Li    Li145        0.5266    0.2530    0.7128
Li    Li146        0.5903    0.2610    0.5388
Li    Li147        0.5858    0.2701    0.6395
Li    Li148        0.7052    0.2112    0.6552
Li    Li149        0.5832    0.2559    0.7934
Li    Li150        0.5866    0.2896    0.9128
Li    Li151        0.6603    0.2059    0.8337
Li    Li152        0.6576    0.3373    0.2098
Li    Li153        0.6667    0.3244    0.1101
Li    Li154        0.7042    0.3380    0.2769
Li    Li155        0.6688    0.3068    0.3449
Li    Li156        0.5913    0.3690    0.5348
Li    Li157        0.5883    0.3901    0.6650
Li    Li158        0.6583    0.3135    0.5892
Li    Li159        0.5423    0.3608    0.9562
Li    Li160        0.5864    0.3553    0.8048
Li    Li161        0.5364    0.3789    0.8489
Li    Li162        0.5387    0.4639    0.2144
Li    Li163        0.5340    0.4852    0.0898
Li    Li164        0.7185    0.4093    0.4165
Li    Li165        0.5798    0.4631    0.5337
Li    Li166        0.5918    0.4891    0.6650
Li    Li167        0.7124    0.4445    0.7922
Li    Li168        0.5789    0.4692    0.7710
Li    Li169        0.7100    0.5423    0.0220
Li    Li170        0.5859    0.5814    0.1590
Li    Li171        0.5818    0.5613    0.2892
Li    Li172        0.6470    0.5054    0.3472
Li    Li173        0.7215    0.5391    0.5302
Li    Li174        0.7129    0.5107    0.6615
Li    Li175        0.7082    0.5433    0.7698
Li    Li176        0.5840    0.5913    0.9208
Li    Li177        0.7131    0.6320    0.2844
Li    Li178        0.5919    0.6648    0.2791
Li    Li179        0.5854    0.6628    0.5412
Li    Li180        0.5322    0.6921    0.5903
Li    Li181        0.6604    0.7382    0.2106
Li    Li182        0.5361    0.7704    0.4808
Li    Li183        0.5896    0.7871    0.4238
Li    Li184        0.6614    0.7171    0.3382
Li    Li185        0.7202    0.7146    0.4085
Li    Li186        0.5255    0.9817    0.8403
Li    Li187        0.9573    0.0352    0.5537
Li    Li188        0.9079    0.0388    0.9651
Li    Li189        0.9141    0.1468    0.2079
Li    Li190        0.8344    0.1634    0.0431
Li    Li191        0.9212    0.1143    0.0956
Li    Li192        0.9605    0.1358    0.2987
Li    Li193        0.9110    0.1368    0.4756
Li    Li194        0.8274    0.1899    0.4070
Li    Li195        0.9196    0.1150    0.3234
Li    Li196        0.8325    0.1928    0.9174
Li    Li197        0.9142    0.2221    0.0928
Li    Li198        0.7922    0.2896    0.0924
Li    Li199        0.8319    0.2774    0.4054
Li    Li200        0.9039    0.2155    0.3368
Li    Li201        0.9667    0.2394    0.5477
Li    Li202        0.9147    0.2349    0.7139
Li    Li203        0.9172    0.2182    0.5977
Li    Li204        0.7799    0.2967    0.5956
Li    Li205        0.9559    0.2387    0.7952
Li    Li206        0.9117    0.2128    0.8286
Li    Li207        0.7923    0.2886    0.8361
Li    Li208        0.9628    0.3347    0.0325
Li    Li209        0.7687    0.3610    0.2063
Li    Li210        0.9147    0.3150    0.0882
Li    Li211        0.9042    0.3358    0.4747
Li    Li212        0.9088    0.3145    0.3366
Li    Li213        0.9170    0.3145    0.5846
Li    Li214        0.9489    0.4320    0.0390
Li    Li215        0.7934    0.4667    0.2053
Li    Li216        0.8306    0.4677    0.0232
Li    Li217        0.8295    0.4907    0.1678
Li    Li218        0.8337    0.4616    0.2909
Li    Li219        0.9133    0.4024    0.3264
Li    Li220        0.9610    0.4417    0.7934
Li    Li221        0.8968    0.4384    0.9693
Li    Li222        0.9867    0.4096    0.8955
Li    Li223        0.8314    0.5908    0.6622
Li    Li224        0.8409    0.6896    0.1656
Li    Li225        0.9082    0.6147    0.3353
Li    Li226        0.9652    0.6116    0.4233
Li    Li227        0.9127    0.7463    0.2122
Li    Li228        0.9588    0.7197    0.1612
Li    Li229        0.9139    0.8128    0.1009
Li    Li230        0.9163    0.8382    0.4556
Li    Li231        0.9067    0.8125    0.3301
Li    Li232        0.0361    0.0542    0.0682
Li    Li233        0.0475    0.0781    0.1964
Li    Li234        0.2024    0.0133    0.0462
Li    Li235        0.0858    0.0924    0.0593
Li    Li236        0.0783    0.0716    0.4249
Li    Li237        0.0436    0.0630    0.3189
Li    Li238        0.0795    0.0796    0.3036
Li    Li239        0.0779    0.0806    0.5399
Li    Li240        0.0766    0.0667    0.9074
Li    Li241        0.0449    0.0857    0.9504
Li    Li242        0.0784    0.0864    0.8099
Li    Li243        0.1666    0.0172    0.9566
Li    Li244        0.2111    0.1407    0.1823
Li    Li245        0.0366    0.1656    0.0657
Li    Li246        0.2064    0.1148    0.0510
Li    Li247        0.0793    0.1859    0.0479
Li    Li248        0.1564    0.1054    0.1838
Li    Li249        0.1690    0.1353    0.3271
Li    Li250        0.0332    0.1552    0.3119
Li    Li251        0.0493    0.1820    0.4485
Li    Li252        0.1950    0.1065    0.3071
Li    Li253        0.0764    0.1873    0.3190
Li    Li254        0.2018    0.1355    0.6779
Li    Li255        0.0452    0.1662    0.5676
Li    Li256        0.0737    0.1829    0.5496
Li    Li257        0.1801    0.1202    0.6976
Li    Li258        0.1775    0.1438    0.8178
Li    Li259        0.0791    0.1629    0.9233
Li    Li260        0.2093    0.1384    0.9344
Li    Li261        0.0517    0.1625    0.8254
Li    Li262        0.0435    0.1975    0.9419
Li    Li263        0.1995    0.1151    0.7977
Li    Li264        0.1665    0.1098    0.9482
Li    Li265        0.0501    0.2833    0.1941
Li    Li266        0.2113    0.2119    0.0550
Li    Li267        0.0831    0.2792    0.0578
Li    Li268        0.1672    0.2342    0.3181
Li    Li269        0.2005    0.2316    0.4293
Li    Li270        0.0493    0.2868    0.4410
Li    Li271        0.0799    0.2894    0.2990
Li    Li272        0.1726    0.2122    0.4526
Li    Li273        0.1729    0.2320    0.5731
Li    Li274        0.0818    0.2579    0.6834
Li    Li275        0.2011    0.2419    0.6875
Li    Li276        0.0309    0.2583    0.5692
Li    Li277        0.0463    0.2909    0.6902
Li    Li278        0.2045    0.2299    0.5327
Li    Li279        0.1729    0.2071    0.6954
Li    Li280        0.0490    0.2864    0.9403
Li    Li281        0.1639    0.3404    0.0716
Li    Li282        0.2028    0.3413    0.1729
Li    Li283        0.0455    0.3619    0.0748
Li    Li284        0.2072    0.3134    0.0541
Li    Li285        0.0802    0.3890    0.0502
Li    Li286        0.1750    0.3129    0.2067
Li    Li287        0.1701    0.3382    0.3260
Li    Li288        0.2183    0.3485    0.4278
Li    Li289        0.1974    0.3150    0.3057
Li    Li290        0.1761    0.3084    0.4391
Li    Li291        0.0807    0.3628    0.6859
Li    Li292        0.1955    0.3311    0.6804
Li    Li293        0.0491    0.3861    0.6891
Li    Li294        0.2041    0.3313    0.5523
Li    Li295        0.0766    0.3659    0.9278
Li    Li296        0.0475    0.3686    0.8256
Li    Li297        0.0369    0.3799    0.9438
Li    Li298        0.1630    0.4401    0.0688
Li    Li299        0.0802    0.4586    0.1733
Li    Li300        0.2079    0.4368    0.1719
Li    Li301        0.0423    0.4892    0.1870
Li    Li302        0.2072    0.4117    0.0472
Li    Li303        0.1802    0.4089    0.1971
Li    Li304        0.0738    0.4672    0.4244
Li    Li305        0.2093    0.4307    0.4347
Li    Li306        0.0396    0.4584    0.3167
Li    Li307        0.0425    0.4863    0.4496
Li    Li308        0.0815    0.4825    0.3077
Li    Li309        0.1723    0.4042    0.4413
Li    Li310        0.1689    0.4256    0.5786
Li    Li311        0.2174    0.4383    0.6799
Li    Li312        0.0472    0.4639    0.5700
Li    Li313        0.2043    0.4139    0.5484
Li    Li314        0.1746    0.4114    0.6931
Li    Li315        0.0706    0.4643    0.9282
Li    Li316        0.1983    0.4370    0.9304
Li    Li317        0.0439    0.4579    0.8268
Li    Li318        0.0581    0.4927    0.9470
Li    Li319        0.1704    0.4120    0.9477
Li    Li320        0.2174    0.5365    0.1934
Li    Li321        0.0469    0.5899    0.1888
Li    Li322        0.1763    0.5165    0.1900
Li    Li323        0.1704    0.5337    0.3270
Li    Li324        0.0765    0.5601    0.4243
Li    Li325        0.2162    0.5456    0.4278
Li    Li326        0.0419    0.5577    0.3070
Li    Li327        0.0798    0.5918    0.3022
Li    Li328        0.1661    0.5184    0.4495
Li    Li329        0.2210    0.5420    0.6790
Li    Li330        0.0424    0.5863    0.6899
Li    Li331        0.0852    0.5917    0.5652
Li    Li332        0.1701    0.5356    0.8289
Li    Li333        0.0571    0.5714    0.8203
Li    Li334        0.2126    0.5084    0.8010
Li    Li335        0.0877    0.6033    0.8254
Li    Li336        0.1725    0.6335    0.0703
Li    Li337        0.0518    0.6820    0.1970
Li    Li338        0.2094    0.6097    0.0454
Li    Li339        0.1657    0.6410    0.3133
Li    Li340        0.2098    0.6309    0.4306
Li    Li341        0.0398    0.6661    0.3192
Li    Li342        0.2042    0.6078    0.3043
Li    Li343        0.0843    0.6867    0.3124
Li    Li344        0.1736    0.6074    0.4500
Li    Li345        0.1678    0.6412    0.5712
Li    Li346        0.0806    0.6716    0.6820
Li    Li347        0.0565    0.6855    0.6992
Li    Li348        0.2026    0.6147    0.5535
Li    Li349        0.1672    0.6134    0.6988
Li    Li350        0.1704    0.6318    0.8210
Li    Li351        0.2022    0.6125    0.8059
Li    Li352        0.1713    0.6142    0.9567
Li    Li353        0.0776    0.7543    0.1682
Li    Li354        0.0393    0.7628    0.0716
Li    Li355        0.0502    0.7867    0.1987
Li    Li356        0.1755    0.7066    0.2045
Li    Li357        0.2133    0.7371    0.4339
Li    Li358        0.1745    0.7115    0.4417
Li    Li359        0.1688    0.7370    0.5701
Li    Li360        0.0824    0.7606    0.6839
Li    Li361        0.0480    0.7840    0.7034
Li    Li362        0.2072    0.7144    0.5564
Li    Li363        0.0786    0.7845    0.5545
Li    Li364        0.1704    0.7121    0.7018
Li    Li365        0.2071    0.7436    0.9364
Li    Li366        0.1716    0.7182    0.9508
Li    Li367        0.1730    0.8305    0.0771
Li    Li368        0.0745    0.8663    0.1804
Li    Li369        0.0440    0.8600    0.0845
Li    Li370        0.0506    0.8679    0.1836
Li    Li371        0.2114    0.8073    0.0572
Li    Li372        0.0672    0.8915    0.0597
Li    Li373        0.1736    0.8149    0.1968
Li    Li374        0.1733    0.8290    0.5809
Li    Li375        0.1757    0.9321    0.0694
Li    Li376        0.1977    0.9303    0.1878
Li    Li377        0.1720    0.9385    0.3231
Li    Li378        0.0716    0.9540    0.4379
Li    Li379        0.2086    0.9386    0.4226
Li    Li380        0.0490    0.9641    0.3306
Li    Li381        0.0432    0.9863    0.4563
Li    Li382        0.2093    0.9134    0.2995
Li    Li383        0.0780    0.9861    0.2976
Li    Li384        0.1668    0.9163    0.4318
Li    Li385        0.1672    0.9465    0.8148
Li    Li386        0.2032    0.9357    0.9270
Li    Li387        0.0482    0.9620    0.8328
Li    Li388        0.2008    0.9054    0.8017
Li    Li389        0.0675    0.9976    0.8099
Li    Li390        0.2956    0.0585    0.0587
Li    Li391        0.4501    0.0090    0.8043
Li    Li392        0.4617    0.1384    0.1822
Li    Li393        0.2929    0.1656    0.0541
Li    Li394        0.4511    0.1327    0.4293
Li    Li395        0.4547    0.1069    0.3093
Li    Li396        0.4220    0.1162    0.4554
Li    Li397        0.3322    0.1612    0.6849
Li    Li398        0.2804    0.1909    0.6936
Li    Li399        0.4208    0.1303    0.8221
Li    Li400        0.3328    0.1595    0.9332
Li    Li401        0.4598    0.1338    0.9288
Li    Li402        0.2946    0.1923    0.9480
Li    Li403        0.3366    0.1910    0.8030
Li    Li404        0.4204    0.1110    0.9470
Li    Li405        0.4574    0.2406    0.1804
Li    Li406        0.2892    0.2611    0.0684
Li    Li407        0.3386    0.2909    0.0549
Li    Li408        0.4139    0.2052    0.1802
Li    Li409        0.3345    0.2490    0.4313
Li    Li410        0.4630    0.2386    0.9327
Li    Li411        0.2842    0.2569    0.8208
Li    Li412        0.3272    0.2823    0.8024
Li    Li413        0.4155    0.3354    0.0660
Li    Li414        0.3289    0.3573    0.1803
Li    Li415        0.4473    0.3381    0.1843
Li    Li416        0.2943    0.3663    0.0756
Li    Li417        0.2963    0.3883    0.2019
Li    Li418        0.4580    0.3073    0.0459
Li    Li419        0.3294    0.3824    0.0559
Li    Li420        0.4228    0.3148    0.1970
Li    Li421        0.3288    0.3608    0.4287
Li    Li422        0.2901    0.3895    0.4446
Li    Li423        0.4227    0.3442    0.5707
Li    Li424        0.3266    0.3647    0.6783
Li    Li425        0.4567    0.3330    0.6769
Li    Li426        0.2844    0.3632    0.5632
Li    Li427        0.3029    0.3896    0.6995
Li    Li428        0.4505    0.3093    0.5568
Li    Li429        0.4248    0.3158    0.6930
Li    Li430        0.4193    0.3392    0.8153
Li    Li431        0.4481    0.3385    0.9330
Li    Li432        0.2931    0.3596    0.8214
Li    Li433        0.4561    0.3117    0.7999
Li    Li434        0.3271    0.3877    0.8069
Li    Li435        0.4231    0.3085    0.9488
Li    Li436        0.3291    0.4698    0.1666
Li    Li437        0.4529    0.4342    0.1732
Li    Li438        0.2944    0.4648    0.0730
Li    Li439        0.2978    0.4856    0.1974
Li    Li440        0.4197    0.4059    0.1963
Li    Li441        0.4523    0.4440    0.4320
Li    Li442        0.2953    0.4653    0.3333
Li    Li443        0.4561    0.4086    0.3108
Li    Li444        0.3246    0.4855    0.3061
Li    Li445        0.4145    0.4131    0.4443
Li    Li446        0.4169    0.4293    0.5681
Li    Li447        0.2944    0.4920    0.7017
Li    Li448        0.4536    0.4138    0.5537
Li    Li449        0.4234    0.4115    0.6994
Li    Li450        0.2996    0.4891    0.9416
Li    Li451        0.4227    0.5278    0.0777
Li    Li452        0.4490    0.5180    0.1935
Li    Li453        0.2871    0.5551    0.0737
Li    Li454        0.2907    0.5828    0.1943
Li    Li455        0.3282    0.5850    0.0476
Li    Li456        0.4227    0.5103    0.2009
Li    Li457        0.2952    0.5596    0.3228
Li    Li458        0.4600    0.5177    0.3046
Li    Li459        0.3328    0.5902    0.5480
Li    Li460        0.4179    0.5163    0.7016
Li    Li461        0.4233    0.5395    0.8231
Li    Li462        0.4642    0.5450    0.9254
Li    Li463        0.2984    0.5584    0.8180
Li    Li464        0.4586    0.5094    0.8028
Li    Li465        0.4244    0.6435    0.0698
Li    Li466        0.3311    0.6675    0.1758
Li    Li467        0.4535    0.6364    0.1862
Li    Li468        0.2966    0.6868    0.1982
Li    Li469        0.4563    0.6124    0.0473
Li    Li470        0.3285    0.6875    0.0509
Li    Li471        0.4214    0.6452    0.3163
Li    Li472        0.3409    0.6628    0.4311
Li    Li473        0.2962    0.6887    0.4393
Li    Li474        0.4586    0.6173    0.3014
Li    Li475        0.4172    0.6094    0.4469
Li    Li476        0.3258    0.6647    0.6787
Li    Li477        0.4584    0.6339    0.6789
Li    Li478        0.3002    0.6844    0.7045
Li    Li479        0.4611    0.6043    0.5612
Li    Li480        0.3265    0.6779    0.5555
Li    Li481        0.4011    0.6076    0.6948
Li    Li482        0.4281    0.6296    0.8257
Li    Li483        0.3284    0.6640    0.9259
Li    Li484        0.4662    0.6430    0.9282
Li    Li485        0.2964    0.6653    0.8225
Li    Li486        0.2853    0.6857    0.9426
Li    Li487        0.4193    0.6117    0.9369
Li    Li488        0.4229    0.7313    0.0801
Li    Li489        0.3347    0.7680    0.1773
Li    Li490        0.3014    0.7938    0.1932
Li    Li491        0.4537    0.7110    0.0471
Li    Li492        0.3371    0.7950    0.0522
Li    Li493        0.4212    0.7055    0.1927
Li    Li494        0.4151    0.7405    0.3193
Li    Li495        0.3226    0.7540    0.4184
Li    Li496        0.4478    0.7404    0.4239
Li    Li497        0.2931    0.7615    0.3125
Li    Li498        0.4565    0.7093    0.3065
Li    Li499        0.3186    0.7834    0.3027
Li    Li500        0.4201    0.7097    0.4418
Li    Li501        0.4241    0.7471    0.5704
Li    Li502        0.4468    0.7048    0.5555
Li    Li503        0.3290    0.7906    0.5734
Li    Li504        0.4169    0.7108    0.6928
Li    Li505        0.3457    0.7663    0.9352
Li    Li506        0.2957    0.7864    0.9401
Li    Li507        0.4221    0.7147    0.9478
Li    Li508        0.3412    0.8547    0.1799
Li    Li509        0.3351    0.8665    0.4330
Li    Li510        0.4605    0.8380    0.4323
Li    Li511        0.3005    0.8666    0.3262
Li    Li512        0.2940    0.8909    0.4428
Li    Li513        0.3350    0.8848    0.3031
Li    Li514        0.4051    0.8262    0.4248
Li    Li515        0.3250    0.8736    0.6924
Li    Li516        0.3013    0.8865    0.7042
Li    Li517        0.4577    0.8282    0.5446
Li    Li518        0.4227    0.8281    0.6744
Li    Li519        0.3389    0.8556    0.9313
Li    Li520        0.2959    0.8632    0.8238
Li    Li521        0.3087    0.8807    0.9338
Li    Li522        0.3300    0.9616    0.1714
Li    Li523        0.2936    0.9593    0.0769
Li    Li524        0.2971    0.9888    0.2039
Li    Li525        0.4247    0.9335    0.3112
Li    Li526        0.4639    0.9042    0.2993
Li    Li527        0.4198    0.9223    0.4438
Li    Li528        0.3279    0.9581    0.9188
Li    Li529        0.4621    0.9292    0.9330
Li    Li530        0.3005    0.9717    0.9498
Li    Li531        0.4060    0.9035    0.9483
Li    Li532        0.5889    0.0639    0.1816
Li    Li533        0.6713    0.0106    0.1928
Li    Li534        0.6699    0.1369    0.0717
Li    Li535        0.5756    0.1691    0.1722
Li    Li536        0.7043    0.1230    0.1683
Li    Li537        0.5472    0.1570    0.0674
Li    Li538        0.6995    0.1183    0.0596
Li    Li539        0.5835    0.1817    0.0709
Li    Li540        0.5762    0.1711    0.4263
Li    Li541        0.5451    0.1774    0.3254
Li    Li542        0.5473    0.1869    0.4501
Li    Li543        0.5895    0.1561    0.9283
Li    Li544        0.6671    0.1187    0.9429
Li    Li545        0.5408    0.2596    0.0763
Li    Li546        0.5714    0.2964    0.0754
Li    Li547        0.7152    0.2461    0.4267
Li    Li548        0.5449    0.2614    0.3274
Li    Li549        0.5507    0.2882    0.4404
Li    Li550        0.6617    0.2114    0.4336
Li    Li551        0.6608    0.2328    0.5671
Li    Li552        0.5772    0.2654    0.6754
Li    Li553        0.7002    0.2352    0.6756
Li    Li554        0.5478    0.2628    0.5657
Li    Li555        0.5377    0.2977    0.6723
Li    Li556        0.5786    0.2894    0.5469
Li    Li557        0.6573    0.2060    0.6909
Li    Li558        0.6607    0.2411    0.8190
Li    Li559        0.5781    0.2650    0.9270
Li    Li560        0.5274    0.2535    0.8223
Li    Li561        0.5609    0.2897    0.9443
Li    Li562        0.7246    0.2078    0.8035
Li    Li563        0.6636    0.3444    0.0709
Li    Li564        0.5882    0.3535    0.1812
Li    Li565        0.7156    0.3402    0.1802
Li    Li566        0.5533    0.3688    0.1820
Li    Li567        0.7037    0.3244    0.0462
Li    Li568        0.6707    0.3160    0.1937
Li    Li569        0.6683    0.3489    0.3159
Li    Li570        0.5845    0.3617    0.4295
Li    Li571        0.7006    0.3368    0.4256
Li    Li572        0.5471    0.3622    0.3233
Li    Li573        0.5723    0.3761    0.3137
Li    Li574        0.6744    0.3369    0.5627
Li    Li575        0.5796    0.3505    0.6878
Li    Li576        0.5466    0.3649    0.5782
Li    Li577        0.5423    0.3908    0.6933
Li    Li578        0.5862    0.3812    0.5579
Li    Li579        0.5759    0.3658    0.9249
Li    Li580        0.7002    0.3356    0.9249
Li    Li581        0.5760    0.3877    0.8099
Li    Li582        0.6540    0.3127    0.9404
Li    Li583        0.5801    0.4676    0.1757
Li    Li584        0.5440    0.4632    0.0758
Li    Li585        0.5512    0.4896    0.1950
Li    Li586        0.5904    0.4944    0.0502
Li    Li587        0.5841    0.4633    0.4282
Li    Li588        0.7137    0.4444    0.4311
Li    Li589        0.5455    0.4683    0.3293
Li    Li590        0.5441    0.4836    0.4540
Li    Li591        0.6699    0.4111    0.4438
Li    Li592        0.5384    0.4624    0.5686
Li    Li593        0.5810    0.4904    0.5659
Li    Li594        0.6784    0.4167    0.6965
Li    Li595        0.6686    0.4341    0.8232
Li    Li596        0.5741    0.4695    0.9318
Li    Li597        0.6991    0.4335    0.9240
Li    Li598        0.5783    0.4884    0.8050
Li    Li599        0.6741    0.5342    0.0686
Li    Li600        0.7098    0.5399    0.1751
Li    Li601        0.5425    0.5555    0.0730
Li    Li602        0.5442    0.5720    0.1978
Li    Li603        0.5895    0.5896    0.0573
Li    Li604        0.6740    0.5138    0.2009
Li    Li605        0.5889    0.5596    0.4320
Li    Li606        0.7083    0.5194    0.4301
Li    Li607        0.5536    0.5525    0.3188
Li    Li608        0.5422    0.5694    0.4350
Li    Li609        0.7212    0.5008    0.3159
Li    Li610        0.5744    0.5897    0.3006
Li    Li611        0.5894    0.5602    0.6820
Li    Li612        0.5465    0.5621    0.5783
Li    Li613        0.7105    0.5109    0.5521
Li    Li614        0.5808    0.5875    0.5506
Li    Li615        0.6665    0.5094    0.6985
Li    Li616        0.7210    0.5474    0.9303
Li    Li617        0.5420    0.5615    0.8242
Li    Li618        0.5465    0.5883    0.9396
Li    Li619        0.7107    0.5128    0.8042
Li    Li620        0.6800    0.5259    0.9291
Li    Li621        0.7024    0.6315    0.1664
Li    Li622        0.6713    0.6113    0.2035
Li    Li623        0.6699    0.6366    0.3210
Li    Li624        0.5826    0.6598    0.4262
Li    Li625        0.5468    0.6633    0.3278
Li    Li626        0.5429    0.6876    0.4474
Li    Li627        0.7062    0.6125    0.2971
Li    Li628        0.5798    0.6893    0.3045
Li    Li629        0.7054    0.6339    0.6712
Li    Li630        0.5435    0.6637    0.5732
Li    Li631        0.5495    0.6872    0.6911
Li    Li632        0.5774    0.6861    0.5442
Li    Li633        0.6602    0.6124    0.6920
Li    Li634        0.7030    0.7387    0.1810
Li    Li635        0.6726    0.7357    0.3272
Li    Li636        0.5828    0.7569    0.4264
Li    Li637        0.7043    0.7324    0.4313
Li    Li638        0.5431    0.7598    0.3213
Li    Li639        0.5474    0.7840    0.4534
Li    Li640        0.5902    0.7933    0.3060
Li    Li641        0.5507    0.7647    0.5705
Li    Li642        0.5512    0.8751    0.4418
Li    Li643        0.6660    0.8142    0.4482
Li    Li644        0.5768    0.9648    0.9187
Li    Li645        0.5484    0.9842    0.9538
Li    Li646        0.9517    0.0367    0.1772
Li    Li647        0.9285    0.0469    0.3241
Li    Li648        0.9568    0.0435    0.4296
Li    Li649        0.9608    0.0160    0.3058
Li    Li650        0.9215    0.0367    0.5712
Li    Li651        0.8320    0.0626    0.9286
Li    Li652        0.9396    0.0346    0.9333
Li    Li653        0.7945    0.0904    0.9407
Li    Li654        0.9194    0.0098    0.9536
Li    Li655        0.9118    0.1433    0.0695
Li    Li656        0.8325    0.1629    0.1809
Li    Li657        0.9564    0.1368    0.1792
Li    Li658        0.7939    0.1574    0.0689
Li    Li659        0.9608    0.1053    0.0548
Li    Li660        0.8254    0.1998    0.0539
Li    Li661        0.9211    0.1148    0.1971
Li    Li662        0.9144    0.1396    0.3076
Li    Li663        0.8149    0.1509    0.4381
Li    Li664        0.9573    0.1386    0.4171
Li    Li665        0.7978    0.1763    0.4551
Li    Li666        0.9504    0.1137    0.3012
Li    Li667        0.9142    0.1084    0.4269
Li    Li668        0.9585    0.1482    0.6842
Li    Li669        0.9213    0.1389    0.8248
Li    Li670        0.8295    0.1674    0.9255
Li    Li671        0.7919    0.1914    0.9476
Li    Li672        0.8344    0.1922    0.8073
Li    Li673        0.9466    0.2478    0.0669
Li    Li674        0.8272    0.2667    0.1747
Li    Li675        0.9632    0.2336    0.1811
Li    Li676        0.7986    0.2662    0.0639
Li    Li677        0.9691    0.2134    0.0631
Li    Li678        0.8257    0.2814    0.0615
Li    Li679        0.9212    0.2131    0.1961
Li    Li680        0.9581    0.2401    0.4300
Li    Li681        0.7966    0.2854    0.4415
Li    Li682        0.8455    0.2914    0.2996
Li    Li683        0.9274    0.2341    0.5716
Li    Li684        0.8316    0.2656    0.6831
Li    Li685        0.9518    0.2434    0.6820
Li    Li686        0.7953    0.2527    0.5704
Li    Li687        0.9438    0.2134    0.5623
Li    Li688        0.8359    0.2905    0.5528
Li    Li689        0.9262    0.2173    0.7020
Li    Li690        0.9196    0.2413    0.8210
Li    Li691        0.8311    0.2670    0.9193
Li    Li692        0.9573    0.2357    0.9306
Li    Li693        0.8000    0.2664    0.8248
Li    Li694        0.7873    0.2837    0.9422
Li    Li695        0.8283    0.2905    0.8057
Li    Li696        0.7887    0.3893    0.1973
Li    Li697        0.9279    0.3343    0.3189
Li    Li698        0.8275    0.3673    0.4335
Li    Li699        0.9529    0.3400    0.4432
Li    Li700        0.7986    0.3566    0.3143
Li    Li701        0.7891    0.3899    0.4493
Li    Li702        0.9244    0.3136    0.4479
Li    Li703        0.9251    0.3359    0.5769
Li    Li704        0.9529    0.3329    0.6809
Li    Li705        0.9553    0.3091    0.5493
Li    Li706        0.9536    0.3345    0.9266
Li    Li707        0.9265    0.3149    0.9419
Li    Li708        0.9207    0.4390    0.0692
Li    Li709        0.8253    0.4722    0.1835
Li    Li710        0.8019    0.4663    0.0615
Li    Li711        0.7968    0.4898    0.1988
Li    Li712        0.8286    0.4736    0.0646
Li    Li713        0.9276    0.4116    0.1922
Li    Li714        0.9206    0.4385    0.3175
Li    Li715        0.8292    0.4681    0.4214
Li    Li716        0.9589    0.4365    0.4301
Li    Li717        0.8006    0.4634    0.3296
Li    Li718        0.8023    0.4854    0.4423
Li    Li719        0.9508    0.4074    0.2991
Li    Li720        0.9516    0.4120    0.5510
Li    Li721        0.9183    0.4376    0.8224
Li    Li722        0.8264    0.4634    0.9253
Li    Li723        0.9666    0.4329    0.9497
Li    Li724        0.7957    0.4598    0.8117
Li    Li725        0.7976    0.4821    0.9535
Li    Li726        0.9531    0.4123    0.7961
Li    Li727        0.9237    0.4116    0.9494
Li    Li728        0.7853    0.5634    0.0663
Li    Li729        0.7997    0.5614    0.5707
Li    Li730        0.7987    0.5884    0.6916
Li    Li731        0.8240    0.5833    0.5487
Li    Li732        0.9594    0.5408    0.9251
Li    Li733        0.9119    0.5117    0.9200
Li    Li734        0.8245    0.6755    0.1788
Li    Li735        0.9526    0.6415    0.1736
Li    Li736        0.7842    0.6874    0.1938
Li    Li737        0.9242    0.6116    0.1975
Li    Li738        0.8348    0.6552    0.4201
Li    Li739        0.9502    0.6369    0.4261
Li    Li740        0.7902    0.7048    0.4298
Li    Li741        0.9538    0.6096    0.3031
Li    Li742        0.9209    0.6117    0.4537
Li    Li743        0.9522    0.6394    0.6743
Li    Li744        0.9506    0.6115    0.5544
Li    Li745        0.8458    0.7554    0.1799
Li    Li746        0.9525    0.7384    0.1743
Li    Li747        0.9583    0.7087    0.0584
Li    Li748        0.9278    0.7130    0.1854
Li    Li749        0.7935    0.7637    0.3272
Li    Li750        0.9483    0.7091    0.3051
Li    Li751        0.8291    0.7864    0.2995
Li    Li752        0.9152    0.8441    0.0696
Li    Li753        0.9567    0.8331    0.1724
Li    Li754        0.9514    0.8158    0.0424
Li    Li755        0.9260    0.8144    0.1931
Li    Li756        0.9188    0.8411    0.3267
Li    Li757        0.9414    0.8353    0.4391
Li    Li758        0.9574    0.8113    0.3003
Li    Li759        0.9225    0.8153    0.4457
Li    Li760        0.9223    0.8346    0.5759
Li    Li761        0.9582    0.8173    0.5524
Li    Li762        0.9563    0.9088    0.0635
Li    Li763        0.9551    0.9405    0.6696
Li    Li764        0.8399    0.9948    0.5564
Li    Li765        0.9895    0.0539    0.0764
Li    Li766        0.0039    0.0800    0.2251
Li    Li767        0.2214    0.9936    0.0638
Li    Li768        0.1243    0.0397    0.3040
Li    Li769        0.1147    0.0830    0.3149
Li    Li770        0.1183    0.0807    0.5458
Li    Li771        0.1165    0.0695    0.9505
Li    Li772        0.0074    0.0821    0.9447
Li    Li773        0.1205    0.0909    0.8111
Li    Li774        0.1320    0.0195    0.9325
Li    Li775        0.0113    0.1628    0.0606
Li    Li776        0.2408    0.1106    0.0588
Li    Li777        0.1297    0.1151    0.1952
Li    Li778        0.0184    0.1863    0.4461
Li    Li779        0.2233    0.1482    0.6863
Li    Li780        0.0018    0.1943    0.6948
Li    Li781        0.1251    0.1354    0.8119
Li    Li782        0.0168    0.1994    0.9357
Li    Li783        0.2351    0.2147    0.0615
Li    Li784        0.1228    0.2712    0.0385
Li    Li785        0.1229    0.2620    0.4223
Li    Li786        0.2474    0.2447    0.4494
Li    Li787        0.0008    0.2938    0.4390
Li    Li788        0.1097    0.2991    0.3100
Li    Li789        0.2360    0.2290    0.6871
Li    Li790        0.0064    0.2585    0.5663
Li    Li791        0.1148    0.2991    0.5590
Li    Li792        0.1310    0.2096    0.6962
Li    Li793        0.0042    0.2968    0.9558
Li    Li794        0.1379    0.3202    0.0563
Li    Li795        0.9832    0.3552    0.0703
Li    Li796        0.1153    0.3925    0.0619
Li    Li797        0.1506    0.3015    0.1969
Li    Li798        0.1187    0.3623    0.4283
Li    Li799        0.0067    0.3869    0.4418
Li    Li800        0.2429    0.3222    0.2778
Li    Li801        0.2412    0.3349    0.6807
Li    Li802        0.0070    0.3821    0.6965
Li    Li803        0.0156    0.3952    0.9316
Li    Li804        0.0102    0.4867    0.1839
Li    Li805        0.2373    0.4208    0.0611
Li    Li806        0.1424    0.4054    0.1867
Li    Li807        0.2457    0.4279    0.4392
Li    Li808        0.0093    0.4630    0.3104
Li    Li809        0.1379    0.4090    0.4430
Li    Li810        0.0061    0.4549    0.5699
Li    Li811        0.2389    0.4078    0.5577
Li    Li812        0.1501    0.4027    0.6891
Li    Li813        0.9890    0.4608    0.8157
Li    Li814        0.0138    0.4818    0.9286
Li    Li815        0.2421    0.5436    0.1917
Li    Li816        0.1345    0.5275    0.3296
Li    Li817        0.1031    0.5583    0.4294
Li    Li818        0.0065    0.5828    0.4218
Li    Li819        0.1218    0.5099    0.4437
Li    Li820        0.9716    0.5819    0.7065
Li    Li821        0.1277    0.5313    0.8341
Li    Li822        0.9871    0.5399    0.8186
Li    Li823        0.2473    0.5153    0.8013
Li    Li824        0.1148    0.6413    0.4626
Li    Li825        0.1153    0.6900    0.3066
Li    Li826        0.1435    0.6096    0.4402
Li    Li827        0.1154    0.6607    0.6762
Li    Li828        0.2617    0.6043    0.5469
Li    Li829        0.1155    0.6040    0.6992
Li    Li830        0.1231    0.7611    0.1865
Li    Li831        0.0066    0.7576    0.0667
Li    Li832        0.0033    0.7885    0.1892
Li    Li833        0.2384    0.7047    0.0599
Li    Li834        0.1304    0.7174    0.4487
Li    Li835        0.1311    0.7420    0.5713
Li    Li836        0.1169    0.7580    0.6783
Li    Li837        0.0027    0.7838    0.7152
Li    Li838        0.1031    0.6973    0.6997
Li    Li839        0.2383    0.7328    0.9266
Li    Li840        0.1486    0.7093    0.9504
Li    Li841        0.1325    0.8338    0.0905
Li    Li842        0.0122    0.8465    0.0635
Li    Li843        0.0053    0.8867    0.1907
Li    Li844        0.1273    0.8867    0.0673
Li    Li845        0.1387    0.8124    0.1960
Li    Li846        0.1173    0.8617    0.4241
Li    Li847        0.2702    0.8351    0.9262
Li    Li848        0.2445    0.9342    0.1755
Li    Li849        0.0048    0.9867    0.4465
Li    Li850        0.1136    0.9871    0.3077
Li    Li851        0.1333    0.9021    0.4094
Li    Li852        0.2658    0.9372    0.9426
Li    Li853        0.0210    0.9500    0.8108
Li    Li854        0.2639    0.0694    0.0478
Li    Li855        0.4976    0.0156    0.8019
Li    Li856        0.5171    0.1323    0.1707
Li    Li857        0.2578    0.1672    0.0974
Li    Li858        0.4893    0.1363    0.4249
Li    Li859        0.3660    0.1792    0.7036
Li    Li860        0.2452    0.1856    0.7013
Li    Li861        0.5233    0.1328    0.9252
Li    Li862        0.5250    0.2321    0.1710
Li    Li863        0.2595    0.2663    0.0592
Li    Li864        0.4910    0.2387    0.4279
Li    Li865        0.3713    0.2339    0.8160
Li    Li866        0.3667    0.2849    0.8182
Li    Li867        0.5060    0.3418    0.1640
Li    Li868        0.3796    0.3940    0.0519
Li    Li869        0.3776    0.3727    0.4463
Li    Li870        0.2620    0.3787    0.4430
Li    Li871        0.4912    0.3224    0.2768
Li    Li872        0.3662    0.3675    0.6792
Li    Li873        0.4750    0.3507    0.7025
Li    Li874        0.2587    0.3671    0.5590
Li    Li875        0.2523    0.3832    0.6945
Li    Li876        0.4968    0.3212    0.9256
Li    Li877        0.3675    0.4581    0.1738
Li    Li878        0.4817    0.4497    0.1885
Li    Li879        0.2608    0.4647    0.0897
Li    Li880        0.3796    0.4197    0.1838
Li    Li881        0.3597    0.4635    0.4251
Li    Li882        0.2555    0.4678    0.3183
Li    Li883        0.4822    0.4002    0.3133
Li    Li884        0.3953    0.4519    0.5501
Li    Li885        0.2392    0.4881    0.6764
Li    Li886        0.4955    0.4178    0.5682
Li    Li887        0.3816    0.4178    0.7030
Li    Li888        0.2246    0.4661    0.8046
Li    Li889        0.2699    0.4871    0.9451
Li    Li890        0.3833    0.5289    0.0555
Li    Li891        0.2515    0.5864    0.1969
Li    Li892        0.4941    0.5092    0.0578
Li    Li893        0.3640    0.5873    0.0461
Li    Li894        0.4952    0.5330    0.9168
Li    Li895        0.3836    0.6389    0.0719
Li    Li896        0.3727    0.6665    0.1809
Li    Li897        0.2502    0.6636    0.0753
Li    Li898        0.4958    0.6150    0.0551
Li    Li899        0.3587    0.6952    0.0637
Li    Li900        0.3909    0.6147    0.2041
Li    Li901        0.3686    0.6639    0.4245
Li    Li902        0.2563    0.6740    0.3080
Li    Li903        0.2529    0.6963    0.4523
Li    Li904        0.3639    0.6636    0.6833
Li    Li905        0.3868    0.6386    0.8198
Li    Li906        0.3490    0.6490    0.9348
Li    Li907        0.2645    0.6601    0.8161
Li    Li908        0.2590    0.6859    0.9450
Li    Li909        0.3919    0.6117    0.9446
Li    Li910        0.3888    0.7333    0.0672
Li    Li911        0.3664    0.7605    0.1985
Li    Li912        0.2714    0.7944    0.1886
Li    Li913        0.3663    0.7604    0.4396
Li    Li914        0.4820    0.7272    0.4429
Li    Li915        0.2615    0.7619    0.3246
Li    Li916        0.4943    0.7410    0.6809
Li    Li917        0.2573    0.7847    0.5732
Li    Li918        0.4951    0.7146    0.5689
Li    Li919        0.3830    0.7108    0.6841
Li    Li920        0.2567    0.7856    0.9391
Li    Li921        0.3788    0.8622    0.1808
Li    Li922        0.3647    0.8671    0.4418
Li    Li923        0.2434    0.8501    0.3151
Li    Li924        0.2374    0.8906    0.4455
Li    Li925        0.4906    0.8199    0.5646
Li    Li926        0.3830    0.8181    0.6957
Li    Li927        0.2613    0.8858    0.9446
Li    Li928        0.3569    0.9564    0.1729
Li    Li929        0.4012    0.9272    0.2969
Li    Li930        0.3868    0.9099    0.4386
Li    Li931        0.3519    0.9625    0.9302
Li    Li932        0.2563    0.9864    0.9604
Li    Li933        0.6112    0.1653    0.1955
Li    Li934        0.5092    0.1650    0.0675
Li    Li935        0.5128    0.1905    0.1856
Li    Li936        0.5087    0.1633    0.3268
Li    Li937        0.5023    0.1836    0.4323
Li    Li938        0.7424    0.1391    0.9312
Li    Li939        0.6337    0.1263    0.9306
Li    Li940        0.6057    0.2334    0.0773
Li    Li941        0.6143    0.2602    0.1821
Li    Li942        0.6183    0.2847    0.0699
Li    Li943        0.5083    0.2694    0.3387
Li    Li944        0.6351    0.2141    0.4567
Li    Li945        0.7667    0.2523    0.6800
Li    Li946        0.5104    0.2665    0.5732
Li    Li947        0.5151    0.2938    0.6788
Li    Li948        0.6269    0.2313    0.8355
Li    Li949        0.6129    0.2790    0.9230
Li    Li950        0.4859    0.2921    0.9537
Li    Li951        0.7632    0.2100    0.8005
Li    Li952        0.5147    0.3893    0.1849
Li    Li953        0.6328    0.3256    0.1671
Li    Li954        0.6417    0.3439    0.3105
Li    Li955        0.7780    0.3333    0.4418
Li    Li956        0.6188    0.3636    0.6819
Li    Li957        0.7401    0.3134    0.5543
Li    Li958        0.6212    0.3539    0.9306
Li    Li959        0.7350    0.3397    0.9363
Li    Li960        0.5066    0.3635    0.8138
Li    Li961        0.6072    0.3814    0.8245
Li    Li962        0.6016    0.4557    0.1785
Li    Li963        0.5042    0.4822    0.1909
Li    Li964        0.6197    0.4652    0.4239
Li    Li965        0.7425    0.4417    0.4301
Li    Li966        0.6241    0.4124    0.4643
Li    Li967        0.6530    0.4132    0.6868
Li    Li968        0.5159    0.5011    0.9333
Li    Li969        0.6349    0.5335    0.0629
Li    Li970        0.5120    0.5529    0.0529
Li    Li971        0.5246    0.5961    0.1916
Li    Li972        0.6188    0.5763    0.0339
Li    Li973        0.6292    0.5118    0.1865
Li    Li974        0.5099    0.5639    0.3077
Li    Li975        0.6203    0.5853    0.2953
Li    Li976        0.6354    0.5068    0.4355
Li    Li977        0.7437    0.5185    0.5359
Li    Li978        0.6316    0.5413    0.8250
Li    Li979        0.6233    0.5660    0.9267
Li    Li980        0.5094    0.5752    0.9334
Li    Li981        0.7408    0.5094    0.8110
Li    Li982        0.6327    0.5162    0.9430
Li    Li983        0.6024    0.6505    0.1878
Li    Li984        0.7432    0.6349    0.1918
Li    Li985        0.6250    0.6400    0.3313
Li    Li986        0.6260    0.6717    0.4350
Li    Li987        0.4964    0.6954    0.4521
Li    Li988        0.6296    0.7025    0.2996
Li    Li989        0.6383    0.6367    0.5792
Li    Li990        0.7368    0.6222    0.6610
Li    Li991        0.4924    0.6546    0.5745
Li    Li992        0.5028    0.6843    0.6904
Li    Li993        0.6322    0.6114    0.6985
Li    Li994        0.7477    0.7375    0.1784
Li    Li995        0.5088    0.7676    0.3447
Li    Li996        0.5123    0.7883    0.4462
Li    Li997        0.7387    0.7136    0.2990
Li    Li998        0.6336    0.7102    0.4394
Li    Li999        0.5051    0.7663    0.5691
Li    Li1000        0.5021    0.8712    0.4352
Li    Li1001        0.6019    0.9758    0.8956
Li    Li1002        0.4974    0.9837    0.9495
Li    Li1003        0.9799    0.0323    0.1539
Li    Li1004        0.8835    0.0345    0.3233
Li    Li1005        0.9984    0.0345    0.4295
Li    Li1006        0.8654    0.0610    0.9408
Li    Li1007        0.9706    0.0495    0.9411
Li    Li1008        0.8626    0.1428    0.0814
Li    Li1009        0.9949    0.1366    0.1720
Li    Li1010        0.7496    0.1635    0.0699
Li    Li1011        0.9840    0.0999    0.0604
Li    Li1012        0.9850    0.1364    0.6821
Li    Li1013        0.8664    0.1893    0.5694
Li    Li1014        0.8741    0.1915    0.8183
Li    Li1015        0.9894    0.2389    0.1876
Li    Li1016        0.8787    0.2321    0.3055
Li    Li1017        0.7546    0.2810    0.4426
Li    Li1018        0.8816    0.2372    0.5674
Li    Li1019        0.9851    0.2349    0.6762
Li    Li1020        0.7533    0.2673    0.5749
Li    Li1021        0.8670    0.2842    0.5574
Li    Li1022        0.8734    0.2328    0.8328
Li    Li1023        0.8742    0.3420    0.0712
Li    Li1024        0.9913    0.3109    0.0544
Li    Li1025        0.8505    0.3450    0.4415
Li    Li1026        0.9981    0.3445    0.4310
Li    Li1027        0.7562    0.3684    0.3198
Li    Li1028        0.7537    0.3845    0.4423
Li    Li1029        0.9870    0.3040    0.3137
Li    Li1030        0.8819    0.3342    0.5700
Li    Li1031        0.0154    0.3267    0.6646
Li    Li1032        0.0025    0.3176    0.5817
Li    Li1033        0.8681    0.3808    0.5549
Li    Li1034        0.8879    0.4272    0.0936
Li    Li1035        0.8619    0.4637    0.1909
Li    Li1036        0.7648    0.4906    0.1952
Li    Li1037        0.8830    0.4205    0.2100
Li    Li1038        0.8798    0.4339    0.3085
Li    Li1039        0.8632    0.4655    0.4209
Li    Li1040        0.9932    0.4109    0.3115
Li    Li1041        0.7393    0.4950    0.6868
Li    Li1042        0.8887    0.4359    0.8315
Li    Li1043        0.7389    0.4890    0.9489
Li    Li1044        0.0143    0.5480    0.1787
Li    Li1045        0.7620    0.5572    0.5628
Li    Li1046        0.7518    0.5926    0.6913
Li    Li1047        0.8663    0.5888    0.5610
Li    Li1048        0.9832    0.5065    0.8094
Li    Li1049        0.8731    0.6261    0.2110
Li    Li1050        0.7482    0.6926    0.4556
Li    Li1051        0.0292    0.6130    0.2976
Li    Li1052        0.9839    0.7533    0.2006
Li    Li1053        0.8756    0.7078    0.1959
Li    Li1054        0.8840    0.7420    0.3137
Li    Li1055        0.7236    0.7621    0.3050
Li    Li1056        0.9880    0.7068    0.3045
Li    Li1057        0.8628    0.7944    0.3149
Li    Li1058        0.9944    0.8346    0.1762
Li    Li1059        0.8764    0.8463    0.3170
Li    Li1060        0.8775    0.8088    0.4445
Li    Li1061        0.9893    0.8175    0.5320
Li    Li1062        0.9889    0.9396    0.6995
Li    Li1063        0.8620    0.9925    0.5699
Li    Li1064        0.2047    0.0025    0.1036
Li    Li1065        0.0420    0.1056    0.1374
Li    Li1066        0.0823    0.0898    0.1063
Li    Li1067        0.0838    0.0467    0.4785
Li    Li1068        0.0343    0.0935    0.3836
Li    Li1069        0.0754    0.1070    0.3661
Li    Li1070        0.0531    0.0478    0.5119
Li    Li1071        0.0836    0.1058    0.5992
Li    Li1072        0.0840    0.1006    0.8575
Li    Li1073        0.2022    0.1509    0.2312
Li    Li1074        0.0422    0.1941    0.1432
Li    Li1075        0.0799    0.1629    0.4871
Li    Li1076        0.0687    0.1879    0.3759
Li    Li1077        0.0482    0.1512    0.5110
Li    Li1078        0.2027    0.1458    0.7322
Li    Li1079        0.2042    0.1051    0.6185
Li    Li1080        0.0855    0.1508    0.9952
Li    Li1081        0.0429    0.1548    0.7765
Li    Li1082        0.2107    0.1545    0.9736
Li    Li1083        0.1659    0.2440    0.0166
Li    Li1084        0.0438    0.2617    0.2672
Li    Li1085        0.2080    0.2020    0.3617
Li    Li1086        0.0772    0.3015    0.3546
Li    Li1087        0.1699    0.2497    0.5014
Li    Li1088        0.0421    0.2618    0.5191
Li    Li1089        0.2101    0.2518    0.7393
Li    Li1090        0.0405    0.3003    0.6454
Li    Li1091        0.1727    0.1978    0.6458
Li    Li1092        0.0854    0.2904    0.6077
Li    Li1093        0.0837    0.2564    0.9838
Li    Li1094        0.2065    0.2109    0.8633
Li    Li1095        0.1465    0.1996    0.8753
Li    Li1096        0.0797    0.3618    0.4735
Li    Li1097        0.1653    0.3472    0.2630
Li    Li1098        0.2164    0.3394    0.4908
Li    Li1099        0.2117    0.3052    0.3791
Li    Li1100        0.0406    0.4056    0.3871
Li    Li1101        0.1697    0.3097    0.3932
Li    Li1102        0.1982    0.3118    0.6008
Li    Li1103        0.0799    0.3559    0.9843
Li    Li1104        0.1682    0.3575    0.7574
Li    Li1105        0.0786    0.3938    0.8592
Li    Li1106        0.2085    0.4045    0.1097
Li    Li1107        0.0469    0.5046    0.1410
Li    Li1108        0.0735    0.4849    0.1253
Li    Li1109        0.1620    0.4480    0.2549
Li    Li1110        0.0491    0.4521    0.2528
Li    Li1111        0.2024    0.4390    0.4823
Li    Li1112        0.2041    0.4018    0.3559
Li    Li1113        0.1686    0.4082    0.3878
Li    Li1114        0.0874    0.4980    0.3703
Li    Li1115        0.0428    0.4540    0.5136
Li    Li1116        0.1924    0.4379    0.7413
Li    Li1117        0.0822    0.4638    0.9860
Li    Li1118        0.2012    0.4358    0.9839
Li    Li1119        0.2048    0.4032    0.8634
Li    Li1120        0.0793    0.4854    0.8648
Li    Li1121        0.1669    0.5436    0.2658
Li    Li1122        0.0359    0.5542    0.2613
Li    Li1123        0.2076    0.5117    0.3534
Li    Li1124        0.0806    0.5977    0.3590
Li    Li1125        0.0428    0.5508    0.5186
Li    Li1126        0.0433    0.5961    0.6461
Li    Li1127        0.0759    0.6668    0.2393
Li    Li1128        0.1732    0.6560    0.0063
Li    Li1129        0.2075    0.6085    0.1054
Li    Li1130        0.0308    0.6979    0.1282
Li    Li1131        0.1782    0.6176    0.1287
Li    Li1132        0.0859    0.6507    0.4792
Li    Li1133        0.2127    0.6385    0.4944
Li    Li1134        0.2000    0.5998    0.3666
Li    Li1135        0.1668    0.6382    0.5230
Li    Li1136        0.0537    0.6993    0.6389
Li    Li1137        0.0742    0.6890    0.6100
Li    Li1138        0.2057    0.6505    0.9770
Li    Li1139        0.1704    0.7404    0.0248
Li    Li1140        0.1993    0.7396    0.2356
Li    Li1141        0.0517    0.7424    0.2587
Li    Li1142        0.0872    0.7443    0.7147
Li    Li1143        0.1667    0.7531    0.5191
Li    Li1144        0.0453    0.7940    0.6413
Li    Li1145        0.1689    0.7049    0.6415
Li    Li1146        0.0880    0.7980    0.5923
Li    Li1147        0.0398    0.9018    0.1209
Li    Li1148        0.1981    0.8494    0.4865
Li    Li1149        0.2115    0.8596    0.7369
Li    Li1150        0.1452    0.8109    0.6208
Li    Li1151        0.1717    0.8969    0.1474
Li    Li1152        0.0750    0.9555    0.4857
Li    Li1153        0.2109    0.9119    0.3680
Li    Li1154        0.1607    0.9023    0.3741
Li    Li1155        0.0407    0.9582    0.7613
Li    Li1156        0.2078    0.9571    0.0068
Li    Li1157        0.2060    0.9002    0.8593
Li    Li1158        0.4208    0.0048    0.9001
Li    Li1159        0.2925    0.1601    0.0202
Li    Li1160        0.4463    0.1200    0.3856
Li    Li1161        0.3346    0.1567    0.7383
Li    Li1162        0.4208    0.1459    0.7574
Li    Li1163        0.2893    0.2072    0.8954
Li    Li1164        0.4296    0.1112    0.8822
Li    Li1165        0.3316    0.2021    0.8619
Li    Li1166        0.4568    0.2068    0.1106
Li    Li1167        0.4132    0.2046    0.1295
Li    Li1168        0.3240    0.3039    0.1124
Li    Li1169        0.2931    0.2957    0.3956
Li    Li1170        0.2898    0.2440    0.7569
Li    Li1171        0.4048    0.2099    0.8765
Li    Li1172        0.3205    0.2963    0.8770
Li    Li1173        0.4266    0.3347    0.0138
Li    Li1174        0.4743    0.3374    0.2476
Li    Li1175        0.4189    0.3009    0.1513
Li    Li1176        0.3367    0.3985    0.1087
Li    Li1177        0.4274    0.3382    0.2685
Li    Li1178        0.4384    0.3352    0.5104
Li    Li1179        0.2890    0.3452    0.5173
Li    Li1180        0.4602    0.3525    0.7333
Li    Li1181        0.4521    0.2990    0.6080
Li    Li1182        0.3003    0.4025    0.6405
Li    Li1183        0.2936    0.3599    0.7664
Li    Li1184        0.4191    0.2969    0.9010
Li    Li1185        0.2916    0.4602    0.0164
Li    Li1186        0.4504    0.4393    0.2413
Li    Li1187        0.3295    0.4994    0.1137
Li    Li1188        0.4187    0.4508    0.2656
Li    Li1189        0.4572    0.4395    0.4898
Li    Li1190        0.2890    0.4930    0.3856
Li    Li1191        0.3290    0.4483    0.9936
Li    Li1192        0.3289    0.5559    0.2276
Li    Li1193        0.4657    0.5473    0.2495
Li    Li1194        0.4586    0.4883    0.1230
Li    Li1195        0.4138    0.5068    0.1342
Li    Li1196        0.2929    0.6111    0.4021
Li    Li1197        0.2975    0.5633    0.5128
Li    Li1198        0.4157    0.5511    0.7690
Li    Li1199        0.3003    0.5572    0.7585
Li    Li1200        0.3216    0.6583    0.2379
Li    Li1201        0.4517    0.6560    0.2391
Li    Li1202        0.4553    0.6052    0.1114
Li    Li1203        0.2875    0.7003    0.1329
Li    Li1204        0.3297    0.7076    0.1132
Li    Li1205        0.3314    0.6548    0.4866
Li    Li1206        0.2929    0.7015    0.3741
Li    Li1207        0.3219    0.6615    0.7458
Li    Li1208        0.2914    0.6455    0.5189
Li    Li1209        0.4569    0.6012    0.6025
Li    Li1210        0.2989    0.6626    0.7708
Li    Li1211        0.4629    0.6599    0.9905
Li    Li1212        0.4607    0.6002    0.8547
Li    Li1213        0.4207    0.7552    0.0232
Li    Li1214        0.4149    0.7470    0.2717
Li    Li1215        0.3007    0.7854    0.3954
Li    Li1216        0.2971    0.7607    0.5266
Li    Li1217        0.4600    0.6884    0.6226
Li    Li1218        0.4545    0.7350    0.9881
Li    Li1219        0.4110    0.8451    0.2553
Li    Li1220        0.4584    0.8505    0.4964
Li    Li1221        0.4579    0.8001    0.3534
Li    Li1222        0.3029    0.8575    0.4973
Li    Li1223        0.4610    0.8013    0.6031
Li    Li1224        0.2911    0.8610    0.7658
Li    Li1225        0.3333    0.9604    0.2366
Li    Li1226        0.4164    0.9474    0.9906
Li    Li1227        0.2941    0.9588    0.0194
Li    Li1228        0.4259    0.9504    0.2621
Li    Li1229        0.4571    0.9042    0.3516
Li    Li1230        0.4623    0.9428    0.9661
Li    Li1231        0.2940    0.9939    0.8968
Li    Li1232        0.7026    0.0494    0.2299
Li    Li1233        0.5390    0.1045    0.1409
Li    Li1234        0.5415    0.1449    0.0191
Li    Li1235        0.6969    0.1167    0.1133
Li    Li1236        0.6600    0.1144    0.1521
Li    Li1237        0.5610    0.1536    0.2484
Li    Li1238        0.5824    0.1962    0.3528
Li    Li1239        0.7041    0.1394    0.9826
Li    Li1240        0.5830    0.2079    0.8718
Li    Li1241        0.6580    0.1974    0.1316
Li    Li1242        0.5520    0.2632    0.2631
Li    Li1243        0.7098    0.2524    0.4677
Li    Li1244        0.7072    0.1928    0.3633
Li    Li1245        0.5821    0.2885    0.3580
Li    Li1246        0.6693    0.2522    0.5216
Li    Li1247        0.5815    0.2938    0.6072
Li    Li1248        0.7081    0.2471    0.9792
Li    Li1249        0.7056    0.1993    0.8673
Li    Li1250        0.5394    0.2923    0.8905
Li    Li1251        0.5421    0.3531    0.0157
Li    Li1252        0.7052    0.3133    0.1046
Li    Li1253        0.5768    0.3554    0.4767
Li    Li1254        0.5471    0.3990    0.3930
Li    Li1255        0.6625    0.3455    0.5081
Li    Li1256        0.7090    0.2993    0.6213
Li    Li1257        0.5519    0.4023    0.6420
Li    Li1258        0.7005    0.3531    0.9883
Li    Li1259        0.6689    0.2947    0.8936
Li    Li1260        0.6727    0.4389    0.0136
Li    Li1261        0.5426    0.4944    0.3861
Li    Li1262        0.5810    0.4984    0.3721
Li    Li1263        0.7051    0.4386    0.7419
Li    Li1264        0.5833    0.4955    0.6241
Li    Li1265        0.5844    0.4470    0.9868
Li    Li1266        0.7096    0.4384    0.9829
Li    Li1267        0.7017    0.4109    0.8698
Li    Li1268        0.5808    0.5648    0.2309
Li    Li1269        0.7039    0.5369    0.2319
Li    Li1270        0.7041    0.5062    0.1100
Li    Li1271        0.6637    0.4995    0.1449
Li    Li1272        0.6998    0.5440    0.4868
Li    Li1273        0.5290    0.6054    0.3768
Li    Li1274        0.6735    0.4895    0.4004
Li    Li1275        0.5861    0.6026    0.3705
Li    Li1276        0.5855    0.5526    0.7299
Li    Li1277        0.5359    0.5929    0.6349
Li    Li1278        0.5837    0.5965    0.6039
Li    Li1279        0.5783    0.5637    0.9741
Li    Li1280        0.6686    0.5477    0.7734
Li    Li1281        0.7066    0.4964    0.8589
Li    Li1282        0.5351    0.6019    0.8714
Li    Li1283        0.5750    0.6393    0.2380
Li    Li1284        0.6684    0.6090    0.1444
Li    Li1285        0.5802    0.6503    0.4935
Li    Li1286        0.5448    0.6486    0.2646
Li    Li1287        0.6697    0.6168    0.6419
Li    Li1288        0.5351    0.7433    0.0185
Li    Li1289        0.6698    0.7438    0.2638
Li    Li1290        0.7047    0.7135    0.3501
Li    Li1291        0.5264    0.7908    0.3772
Li    Li1292        0.5750    0.8019    0.3631
Li    Li1293        0.5417    0.7488    0.5180
Li    Li1294        0.5879    0.8579    0.4901
Li    Li1295        0.6637    0.7980    0.3955
Li    Li1296        0.5439    0.0035    0.8903
Li    Li1297        0.9625    0.0510    0.2416
Li    Li1298        0.9177    0.0537    0.2727
Li    Li1299        0.9543    0.0450    0.4867
Li    Li1300        0.9305    0.0171    0.3775
Li    Li1301        0.9183    0.0146    0.6321
Li    Li1302        0.8374    0.0438    0.9841
Li    Li1303        0.9515    0.0470    0.9943
Li    Li1304        0.8362    0.1528    0.2327
Li    Li1305        0.7915    0.1650    0.0155
Li    Li1306        0.9548    0.1513    0.2403
Li    Li1307        0.7897    0.2030    0.1353
Li    Li1308        0.9277    0.1066    0.1337
Li    Li1309        0.8286    0.1599    0.4897
Li    Li1310        0.7976    0.1457    0.2612
Li    Li1311        0.9632    0.1152    0.3619
Li    Li1312        0.7895    0.1957    0.3914
Li    Li1313        0.7957    0.1538    0.5199
Li    Li1314        0.9554    0.1062    0.8587
Li    Li1315        0.9110    0.0970    0.8985
Li    Li1316        0.8463    0.2630    0.2494
Li    Li1317        0.7943    0.2475    0.0194
Li    Li1318        0.9520    0.2476    0.2334
Li    Li1319        0.8003    0.2779    0.1401
Li    Li1320        0.9325    0.2057    0.1321
Li    Li1321        0.9061    0.2444    0.2558
Li    Li1322        0.7905    0.2581    0.2627
Li    Li1323        0.9531    0.2037    0.3635
Li    Li1324        0.8028    0.2998    0.3916
Li    Li1325        0.8288    0.2433    0.7329
Li    Li1326        0.7903    0.2538    0.4920
Li    Li1327        0.7944    0.3046    0.6440
Li    Li1328        0.9233    0.1954    0.6463
Li    Li1329        0.7933    0.2457    0.7746
Li    Li1330        0.8011    0.2926    0.8893
Li    Li1331        0.9036    0.2007    0.8723
Li    Li1332        0.9239    0.3363    0.0186
Li    Li1333        0.7847    0.3994    0.1272
Li    Li1334        0.8477    0.3451    0.4917
Li    Li1335        0.7754    0.3475    0.2489
Li    Li1336        0.9710    0.3539    0.4625
Li    Li1337        0.9562    0.3009    0.3507
Li    Li1338        0.7888    0.3974    0.3957
Li    Li1339        0.7992    0.3594    0.5123
Li    Li1340        0.9622    0.3051    0.6156
Li    Li1341        0.9148    0.3077    0.6398
Li    Li1342        0.9251    0.2949    0.8907
Li    Li1343        0.8304    0.4432    0.2333
Li    Li1344        0.9489    0.4518    0.2309
Li    Li1345        0.9201    0.4056    0.1412
Li    Li1346        0.7963    0.4615    0.2698
Li    Li1347        0.9584    0.4390    0.4831
Li    Li1348        0.7785    0.4890    0.3747
Li    Li1349        0.8304    0.4533    0.9899
Li    Li1350        0.7825    0.4408    0.7736
Li    Li1351        0.7904    0.4895    0.8897
Li    Li1352        0.8481    0.4953    0.8751
Li    Li1353        0.8345    0.5954    0.6148
Li    Li1354        0.7846    0.7138    0.1260
Li    Li1355        0.9519    0.6029    0.3665
Li    Li1356        0.7844    0.7085    0.3781
Li    Li1357        0.8470    0.7069    0.3701
Li    Li1358        0.9491    0.6449    0.7393
Li    Li1359        0.9525    0.5953    0.6074
Li    Li1360        0.9191    0.6011    0.6524
Li    Li1361        0.9531    0.7560    0.2262
Li    Li1362        0.9575    0.7039    0.1087
Li    Li1363        0.8305    0.7986    0.1144
Li    Li1364        0.7918    0.7932    0.3853
Li    Li1365        0.9206    0.8383    0.0186
Li    Li1366        0.9507    0.8542    0.2331
Li    Li1367        0.9490    0.8049    0.6138
Li    Li1368        0.1202    0.0913    0.1562
Li    Li1369        0.0024    0.0095    0.3940
Li    Li1370        0.1141    0.0931    0.4095
Li    Li1371        0.1168    0.0492    0.4898
Li    Li1372        0.9885    0.0490    0.2899
Li    Li1373        0.0021    0.0476    0.5241
Li    Li1374        0.1262    0.1078    0.0892
Li    Li1375        0.1183    0.1589    0.0321
Li    Li1376        0.1302    0.1446    0.2205
Li    Li1377        0.9943    0.1367    0.0303
Li    Li1378        0.9995    0.1183    0.4019
Li    Li1379        0.1327    0.1099    0.3397
Li    Li1380        0.1244    0.1868    0.4088
Li    Li1381        0.1228    0.1712    0.2730
Li    Li1382        0.1124    0.1444    0.4632
Li    Li1383        0.9853    0.1400    0.2913
Li    Li1384        1.0000    0.1096    0.6487
Li    Li1385        0.1138    0.1941    0.6597
Li    Li1386        0.1353    0.1333    0.7215
Li    Li1387        0.9949    0.1060    0.9039
Li    Li1388        0.2557    0.1878    0.8428
Li    Li1389        0.1395    0.1168    0.8343
Li    Li1390        0.1071    0.1914    0.9004
Li    Li1391        0.1091    0.1748    0.7712
Li    Li1392        0.1255    0.1425    0.9698
Li    Li1393        0.9845    0.1341    0.7737
Li    Li1394        0.9816    0.2115    0.1407
Li    Li1395        0.2489    0.2911    0.0876
Li    Li1396        0.1168    0.2521    0.0240
Li    Li1397        0.9907    0.2110    0.4048
Li    Li1398        0.2480    0.2903    0.3511
Li    Li1399        0.1219    0.2100    0.3495
Li    Li1400        0.1345    0.2851    0.4075
Li    Li1401        0.1260    0.2603    0.2832
Li    Li1402        0.9916    0.2464    0.2830
Li    Li1403        0.9879    0.2194    0.6453
Li    Li1404        0.1185    0.2111    0.6091
Li    Li1405        0.1024    0.2535    0.5257
Li    Li1406        0.2340    0.2649    0.7158
Li    Li1407        0.9964    0.2429    0.5383
Li    Li1408        0.9824    0.2161    0.8937
Li    Li1409        0.1279    0.2052    0.8374
Li    Li1410        0.0015    0.2348    0.7823
Li    Li1411        0.2453    0.3936    0.0991
Li    Li1412        0.1443    0.3116    0.0901
Li    Li1413        0.1274    0.3614    0.0188
Li    Li1414        0.1331    0.3330    0.2235
Li    Li1415        0.9850    0.3286    0.0203
Li    Li1416        0.9878    0.3245    0.3943
Li    Li1417        0.1401    0.3222    0.3574
Li    Li1418        0.1073    0.3838    0.3960
Li    Li1419        0.1288    0.3588    0.2831
Li    Li1420        0.1139    0.3396    0.4749
Li    Li1421        0.9886    0.3374    0.2867
Li    Li1422        0.0039    0.3068    0.6492
Li    Li1423        0.2574    0.3801    0.6074
Li    Li1424        0.1357    0.3187    0.5986
Li    Li1425        0.1393    0.3651    0.5302
Li    Li1426        0.1127    0.3341    0.7161
Li    Li1427        0.2440    0.3628    0.7243
Li    Li1428        0.2687    0.3825    0.8566
Li    Li1429        0.1087    0.3859    0.9041
Li    Li1430        0.1230    0.3688    0.7735
Li    Li1431        0.0069    0.3403    0.7812
Li    Li1432        0.9927    0.4163    0.1446
Li    Li1433        0.1299    0.4194    0.1064
Li    Li1434        0.1336    0.4611    0.0349
Li    Li1435        0.1174    0.4411    0.2249
Li    Li1436        0.2639    0.4585    0.2153
Li    Li1437        0.9758    0.4382    0.0417
Li    Li1438        0.9998    0.4067    0.4043
Li    Li1439        0.2600    0.4956    0.3470
Li    Li1440        0.1313    0.4140    0.3464
Li    Li1441        0.1229    0.4855    0.4003
Li    Li1442        0.1155    0.4559    0.2816
Li    Li1443        0.1374    0.4399    0.4583
Li    Li1444        0.2625    0.4566    0.4664
Li    Li1445        0.0183    0.4373    0.2766
Li    Li1446        0.9830    0.4124    0.6608
Li    Li1447        0.1268    0.4097    0.6131
Li    Li1448        0.1450    0.4344    0.7184
Li    Li1449        0.2409    0.4618    0.7177
Li    Li1450        0.9864    0.4267    0.5225
Li    Li1451        0.0106    0.4030    0.8955
Li    Li1452        0.2747    0.4688    0.9694
Li    Li1453        0.9812    0.4351    0.7831
Li    Li1454        0.1407    0.5856    0.1585
Li    Li1455        0.2565    0.5826    0.3581
Li    Li1456        0.1206    0.5083    0.3501
Li    Li1457        0.1118    0.5854    0.4049
Li    Li1458        0.1186    0.5534    0.2776
Li    Li1459        0.2506    0.5666    0.4688
Li    Li1460        0.9988    0.5341    0.2701
Li    Li1461        0.0064    0.5350    0.5271
Li    Li1462        0.9872    0.5198    0.8896
Li    Li1463        0.2382    0.5896    0.8480
Li    Li1464        0.1297    0.5037    0.8441
Li    Li1465        0.1184    0.5631    0.7901
Li    Li1466        0.0002    0.6056    0.1579
Li    Li1467        0.2405    0.6848    0.0945
Li    Li1468        0.1612    0.6204    0.1009
Li    Li1469        0.2526    0.6540    0.2199
Li    Li1470        0.9985    0.6152    0.3988
Li    Li1471        0.2567    0.6826    0.3534
Li    Li1472        0.1228    0.6138    0.3487
Li    Li1473        0.1204    0.6583    0.2829
Li    Li1474        0.2462    0.6583    0.4770
Li    Li1475        0.9944    0.6436    0.2794
Li    Li1476        0.1321    0.6102    0.5920
Li    Li1477        0.1046    0.6792    0.5175
Li    Li1478        0.1288    0.6443    0.7184
Li    Li1479        0.2611    0.6590    0.7170
Li    Li1480        0.1345    0.6128    0.8467
Li    Li1481        0.1188    0.6848    0.9044
Li    Li1482        0.9934    0.7155    0.1644
Li    Li1483        0.2494    0.7822    0.0978
Li    Li1484        0.1447    0.7864    0.1466
Li    Li1485        0.2649    0.7619    0.2216
Li    Li1486        0.9965    0.7329    0.0221
Li    Li1487        0.2591    0.7912    0.3473
Li    Li1488        0.1294    0.7371    0.4717
Li    Li1489        0.0183    0.7274    0.2719
Li    Li1490        0.1212    0.7611    0.5408
Li    Li1491        0.1341    0.7316    0.7297
Li    Li1492        0.1139    0.7494    0.7753
Li    Li1493        0.1228    0.7387    0.9672
Li    Li1494        0.2257    0.7607    0.9652
Li    Li1495        0.0123    0.7450    0.7551
Li    Li1496        0.1447    0.8173    0.1046
Li    Li1497        0.1128    0.8702    0.0170
Li    Li1498        0.1124    0.8354    0.2208
Li    Li1499        0.9866    0.8367    0.0393
Li    Li1500        0.2538    0.8889    0.3448
Li    Li1501        0.1179    0.8853    0.3986
Li    Li1502        0.2649    0.8622    0.4617
Li    Li1503        0.9838    0.8089    0.6641
Li    Li1504        0.2569    0.8546    0.7158
Li    Li1505        0.0024    0.8406    0.5221
Li    Li1506        0.2570    0.8787    0.8549
Li    Li1507        0.9953    0.9153    0.1442
Li    Li1508        0.2532    0.9934    0.0826
Li    Li1509        0.1292    0.9182    0.1004
Li    Li1510        0.1261    0.9363    0.2189
Li    Li1511        0.2453    0.9663    0.2153
Li    Li1512        0.1466    0.9214    0.3589
Li    Li1513        0.1441    0.9628    0.2779
Li    Li1514        0.1185    0.9391    0.4758
Li    Li1515        0.1349    0.9539    0.7835
Li    Li1516        0.1381    0.9345    0.9500
Li    Li1517        0.2650    0.9652    0.9655
Li    Li1518        0.2653    0.0119    0.1572
Li    Li1519        0.2437    0.1119    0.1443
Li    Li1520        0.5085    0.1811    0.1020
Li    Li1521        0.2470    0.1395    0.0310
Li    Li1522        0.4994    0.1876    0.3684
Li    Li1523        0.3928    0.1223    0.3533
Li    Li1524        0.4990    0.1567    0.4637
Li    Li1525        0.2508    0.1093    0.6569
Li    Li1526        0.3732    0.1369    0.7243
Li    Li1527        0.3850    0.1851    0.9044
Li    Li1528        0.3892    0.1640    0.7743
Li    Li1529        0.5087    0.1547    0.9594
Li    Li1530        0.2324    0.1399    0.7512
Li    Li1531        0.5055    0.2908    0.0949
Li    Li1532        0.3973    0.2084    0.0916
Li    Li1533        0.3909    0.2869    0.1580
Li    Li1534        0.2467    0.2077    0.4128
Li    Li1535        0.4805    0.2883    0.3453
Li    Li1536        0.4983    0.2625    0.4770
Li    Li1537        0.2414    0.2183    0.6529
Li    Li1538        0.3835    0.2311    0.7319
Li    Li1539        0.2413    0.2371    0.5180
Li    Li1540        0.2565    0.2169    0.9048
Li    Li1541        0.5005    0.2882    0.8446
Li    Li1542        0.3836    0.2064    0.8310
Li    Li1543        0.3699    0.2891    0.9138
Li    Li1544        0.3684    0.2612    0.7811
Li    Li1545        0.4915    0.2661    0.9819
Li    Li1546        0.2320    0.2422    0.7634
Li    Li1547        0.2348    0.3135    0.1581
Li    Li1548        0.3858    0.3121    0.0802
Li    Li1549        0.3719    0.3533    0.0302
Li    Li1550        0.3944    0.3299    0.2221
Li    Li1551        0.5149    0.3610    0.2258
Li    Li1552        0.2470    0.3100    0.4181
Li    Li1553        0.5078    0.3821    0.3509
Li    Li1554        0.3747    0.3539    0.2706
Li    Li1555        0.3660    0.3315    0.4678
Li    Li1556        0.2525    0.3241    0.6573
Li    Li1557        0.5120    0.3863    0.6044
Li    Li1558        0.3658    0.3923    0.6692
Li    Li1559        0.3736    0.3685    0.5249
Li    Li1560        0.3875    0.3416    0.7120
Li    Li1561        0.3761    0.3172    0.8622
Li    Li1562        0.3907    0.3221    0.9796
Li    Li1563        0.2384    0.4305    0.1474
Li    Li1564        0.4988    0.4874    0.0993
Li    Li1565        0.3908    0.4065    0.0920
Li    Li1566        0.3687    0.4951    0.1530
Li    Li1567        0.3878    0.4655    0.0322
Li    Li1568        0.3839    0.4346    0.2138
Li    Li1569        0.2435    0.4318    0.0172
Li    Li1570        0.5106    0.4788    0.3558
Li    Li1571        0.3916    0.4642    0.2815
Li    Li1572        0.3831    0.4398    0.4557
Li    Li1573        0.2456    0.4306    0.2794
Li    Li1574        0.2478    0.4064    0.6603
Li    Li1575        0.3600    0.4693    0.5247
Li    Li1576        0.2556    0.4358    0.5245
Li    Li1577        0.3645    0.4902    0.9069
Li    Li1578        0.2474    0.5119    0.1504
Li    Li1579        0.3657    0.5089    0.0931
Li    Li1580        0.3707    0.5903    0.1512
Li    Li1581        0.3777    0.5394    0.2207
Li    Li1582        0.5082    0.5571    0.2172
Li    Li1583        0.2634    0.5134    0.4042
Li    Li1584        0.4828    0.5814    0.3472
Li    Li1585        0.4997    0.5571    0.4616
Li    Li1586        0.2498    0.5393    0.2819
Li    Li1587        0.5038    0.5933    0.8446
Li    Li1588        0.3800    0.5142    0.8537
Li    Li1589        0.3703    0.5654    0.7749
Li    Li1590        0.2519    0.5372    0.7767
Li    Li1591        0.2398    0.6126    0.1541
Li    Li1592        0.3842    0.6103    0.0974
Li    Li1593        0.3802    0.6932    0.1553
Li    Li1594        0.3659    0.6751    0.0195
Li    Li1595        0.3581    0.6362    0.2177
Li    Li1596        0.5100    0.6704    0.2337
Li    Li1597        0.2456    0.6336    0.0174
Li    Li1598        0.2490    0.6064    0.4129
Li    Li1599        0.4947    0.6857    0.3433
Li    Li1600        0.3901    0.6831    0.4017
Li    Li1601        0.3927    0.6364    0.4687
Li    Li1602        0.2733    0.6358    0.2720
Li    Li1603        0.5039    0.6805    0.6042
Li    Li1604        0.3829    0.6396    0.7096
Li    Li1605        0.5058    0.6683    0.7256
Li    Li1606        0.2435    0.6366    0.5336
Li    Li1607        0.3717    0.6072    0.8467
Li    Li1608        0.3532    0.6379    0.9602
Li    Li1609        0.2364    0.6399    0.7795
Li    Li1610        0.2443    0.7061    0.1651
Li    Li1611        0.3693    0.7686    0.0231
Li    Li1612        0.3776    0.7374    0.2236
Li    Li1613        0.5152    0.7565    0.2147
Li    Li1614        0.2247    0.7355    0.0396
Li    Li1615        0.2648    0.7115    0.4011
Li    Li1616        0.5096    0.7915    0.3392
Li    Li1617        0.3889    0.7163    0.3445
Li    Li1618        0.3728    0.7874    0.3928
Li    Li1619        0.3710    0.7663    0.2749
Li    Li1620        0.3514    0.7398    0.4668
Li    Li1621        0.4961    0.7603    0.4776
Li    Li1622        0.2388    0.7146    0.6500
Li    Li1623        0.3616    0.7841    0.6468
Li    Li1624        0.3818    0.7664    0.5274
Li    Li1625        0.5247    0.7695    0.7253
Li    Li1626        0.2375    0.7431    0.5363
Li    Li1627        0.2630    0.7112    0.9027
Li    Li1628        0.3862    0.7852    0.9062
Li    Li1629        0.3807    0.7469    0.9774
Li    Li1630        0.2534    0.8120    0.1492
Li    Li1631        0.3868    0.8290    0.2274
Li    Li1632        0.3712    0.8887    0.4079
Li    Li1633        0.3685    0.8663    0.2830
Li    Li1634        0.3741    0.8424    0.4771
Li    Li1635        0.2314    0.8290    0.2714
Li    Li1636        0.3687    0.8419    0.7211
Li    Li1637        0.2500    0.8354    0.5274
Li    Li1638        0.3865    0.8392    0.9716
Li    Li1639        0.2594    0.9136    0.1547
Li    Li1640        0.2565    0.9358    0.0252
Li    Li1641        0.2345    0.9219    0.4019
Li    Li1642        0.3735    0.9535    0.2786
Li    Li1643        0.2399    0.9391    0.2872
Li    Li1644        0.2483    0.9173    0.9051
Li    Li1645        0.4985    0.9873    0.8480
Li    Li1646        0.3868    0.9842    0.9026
Li    Li1647        0.3773    0.9404    0.9639
Li    Li1648        0.6342    0.0955    0.1470
Li    Li1649        0.6386    0.0486    0.2130
Li    Li1650        0.7509    0.0610    0.2189
Li    Li1651        0.5003    0.0179    0.9022
Li    Li1652        0.7468    0.1910    0.0899
Li    Li1653        0.6054    0.1635    0.0318
Li    Li1654        0.6318    0.1380    0.2160
Li    Li1655        0.7541    0.1694    0.2259
Li    Li1656        0.7471    0.1904    0.3584
Li    Li1657        0.6145    0.1832    0.4034
Li    Li1658        0.6190    0.1659    0.2677
Li    Li1659        0.4791    0.1352    0.2760
Li    Li1660        0.4918    0.1410    0.5261
Li    Li1661        0.7385    0.1883    0.8531
Li    Li1662        0.7524    0.1637    0.9725
Li    Li1663        0.4949    0.2162    0.1480
Li    Li1664        0.7567    0.2916    0.1058
Li    Li1665        0.6253    0.2079    0.1084
Li    Li1666        0.6206    0.2913    0.1512
Li    Li1667        0.6194    0.2604    0.0354
Li    Li1668        0.7656    0.2677    0.2165
Li    Li1669        0.6366    0.2140    0.3602
Li    Li1670        0.6196    0.2868    0.4053
Li    Li1671        0.7530    0.2991    0.5949
Li    Li1672        0.6299    0.2902    0.6539
Li    Li1673        0.6140    0.2618    0.5462
Li    Li1674        0.7742    0.2784    0.7347
Li    Li1675        0.7582    0.2853    0.8498
Li    Li1676        0.6061    0.2189    0.8496
Li    Li1677        0.6215    0.2859    0.8998
Li    Li1678        0.6144    0.2596    0.7909
Li    Li1679        0.6302    0.2386    0.9675
Li    Li1680        0.4971    0.3098    0.1609
Li    Li1681        0.7590    0.3863    0.0945
Li    Li1682        0.6383    0.3181    0.1041
Li    Li1683        0.5065    0.3115    0.4021
Li    Li1684        0.7562    0.3875    0.3475
Li    Li1685        0.6263    0.3131    0.3502
Li    Li1686        0.6391    0.3700    0.2797
Li    Li1687        0.6246    0.3416    0.4656
Li    Li1688        0.7561    0.3624    0.4522
Li    Li1689        0.4862    0.3217    0.6498
Li    Li1690        0.6391    0.3125    0.6109
Li    Li1691        0.6153    0.3843    0.6481
Li    Li1692        0.5125    0.3021    0.9067
Li    Li1693        0.6189    0.3090    0.8502
Li    Li1694        0.6161    0.3787    0.8926
Li    Li1695        0.4832    0.3371    0.7719
Li    Li1696        0.7657    0.4912    0.0821
Li    Li1697        0.6210    0.4875    0.1560
Li    Li1698        0.6177    0.4537    0.0328
Li    Li1699        0.7505    0.4625    0.2232
Li    Li1700        0.4852    0.4236    0.4033
Li    Li1701        0.7535    0.4852    0.3515
Li    Li1702        0.6131    0.4919    0.4078
Li    Li1703        0.6101    0.4341    0.4713
Li    Li1704        0.7396    0.4606    0.4741
Li    Li1705        0.4747    0.4378    0.2818
Li    Li1706        0.5014    0.4079    0.6515
Li    Li1707        0.6313    0.4845    0.6541
Li    Li1708        0.6211    0.4674    0.5120
Li    Li1709        0.7486    0.4566    0.7178
Li    Li1710        0.5137    0.4424    0.5254
Li    Li1711        0.7515    0.4857    0.8412
Li    Li1712        0.6196    0.4146    0.8491
Li    Li1713        0.6167    0.4872    0.9037
Li    Li1714        0.6324    0.4615    0.7810
Li    Li1715        0.7667    0.4568    0.9735
Li    Li1716        0.7461    0.5905    0.0947
Li    Li1717        0.6432    0.5673    0.0283
Li    Li1718        0.7543    0.5638    0.2231
Li    Li1719        0.5090    0.5377    0.0287
Li    Li1720        0.6211    0.5150    0.3465
Li    Li1721        0.6128    0.5795    0.4089
Li    Li1722        0.6211    0.5658    0.2790
Li    Li1723        0.7468    0.5566    0.4736
Li    Li1724        0.4928    0.5381    0.2893
Li    Li1725        0.7392    0.5866    0.5966
Li    Li1726        0.6223    0.5851    0.6494
Li    Li1727        0.6312    0.5448    0.7179
Li    Li1728        0.7517    0.5617    0.7186
Li    Li1729        0.6124    0.5124    0.8452
Li    Li1730        0.6255    0.5900    0.9046
Li    Li1731        0.6335    0.5617    0.7826
Li    Li1732        0.6290    0.5388    0.9770
Li    Li1733        0.5089    0.6135    0.1520
Li    Li1734        0.6360    0.6382    0.2022
Li    Li1735        0.7614    0.6675    0.2236
Li    Li1736        0.7356    0.6848    0.3380
Li    Li1737        0.6255    0.6070    0.3514
Li    Li1738        0.6263    0.6860    0.3948
Li    Li1739        0.6181    0.6668    0.2696
Li    Li1740        0.6263    0.6312    0.4769
Li    Li1741        0.4973    0.6151    0.6504
Li    Li1742        0.6369    0.6067    0.5896
Li    Li1743        0.6213    0.6569    0.5346
Li    Li1744        0.5103    0.6172    0.9048
Li    Li1745        0.6340    0.7280    0.2204
Li    Li1746        0.4848    0.7341    0.0296
Li    Li1747        0.4850    0.7110    0.4043
Li    Li1748        0.7453    0.7870    0.3482
Li    Li1749        0.6454    0.7080    0.3538
Li    Li1750        0.6078    0.7800    0.3922
Li    Li1751        0.6335    0.7607    0.2826
Li    Li1752        0.6092    0.7437    0.4713
Li    Li1753        0.7481    0.7605    0.4657
Li    Li1754        0.5101    0.7424    0.2748
Li    Li1755        0.4951    0.7064    0.6532
Li    Li1756        0.4972    0.7370    0.5198
Li    Li1757        0.4967    0.8112    0.4055
Li    Li1758        0.5069    0.8398    0.5228
Li    Li1759        0.9884    0.0885    0.3423
Li    Li1760        0.8893    0.0132    0.3322
Li    Li1761        0.9989    0.0634    0.4751
Li    Li1762        0.8926    0.0181    0.6019
Li    Li1763        0.0027    0.0899    0.8421
Li    Li1764        0.8704    0.0839    0.9008
Li    Li1765        0.8823    0.0293    0.9792
Li    Li1766        0.0027    0.0646    0.9836
Li    Li1767        0.0101    0.1881    0.0926
Li    Li1768        0.8470    0.1183    0.0996
Li    Li1769        0.8626    0.1923    0.1610
Li    Li1770        0.8578    0.1418    0.2328
Li    Li1771        0.0148    0.1637    0.2187
Li    Li1772        0.7365    0.1358    0.0470
Li    Li1773        0.0104    0.1830    0.3515
Li    Li1774        0.8924    0.1168    0.3464
Li    Li1775        0.8724    0.1899    0.3921
Li    Li1776        0.8734    0.1634    0.2835
Li    Li1777        0.8882    0.1357    0.4849
Li    Li1778        0.0007    0.1610    0.7280
Li    Li1779        0.7689    0.1349    0.5274
Li    Li1780        0.7583    0.1187    0.9070
Li    Li1781        0.0170    0.1835    0.8546
Li    Li1782        0.8881    0.1645    0.7804
Li    Li1783        0.0008    0.1630    0.9805
Li    Li1784        0.8686    0.2113    0.1036
Li    Li1785        0.8520    0.2817    0.1437
Li    Li1786        0.8742    0.2417    0.2155
Li    Li1787        0.0088    0.2606    0.2129
Li    Li1788        0.7454    0.2324    0.0243
Li    Li1789        0.9966    0.2922    0.3483
Li    Li1790        0.8866    0.2268    0.3542
Li    Li1791        0.8760    0.2630    0.2742
Li    Li1792        0.0015    0.2591    0.4888
Li    Li1793        0.7420    0.2185    0.6477
Li    Li1794        0.9964    0.2863    0.5894
Li    Li1795        0.8787    0.2152    0.5983
Li    Li1796        0.8663    0.2829    0.6430
Li    Li1797        0.8556    0.2615    0.5305
Li    Li1798        0.8783    0.2416    0.7332
Li    Li1799        0.7353    0.2388    0.5313
Li    Li1800        0.7407    0.2165    0.9072
Li    Li1801        0.8825    0.2167    0.8517
Li    Li1802        0.8901    0.2733    0.9005
Li    Li1803        0.8770    0.2644    0.7751
Li    Li1804        0.9934    0.2626    0.9814
Li    Li1805        0.0075    0.3882    0.1020
Li    Li1806        0.8556    0.3106    0.0982
Li    Li1807        0.7364    0.3238    0.0277
Li    Li1808        0.7463    0.3143    0.3985
Li    Li1809        0.8777    0.3094    0.3403
Li    Li1810        0.8790    0.3327    0.4742
Li    Li1811        0.7439    0.3404    0.2963
Li    Li1812        0.8674    0.3096    0.5946
Li    Li1813        0.8964    0.3602    0.5292
Li    Li1814        0.0147    0.3700    0.7296
Li    Li1815        0.7414    0.3079    0.9122
Li    Li1816        0.0029    0.3918    0.8341
Li    Li1817        0.9940    0.3558    0.9654
Li    Li1818        0.7533    0.4096    0.1509
Li    Li1819        0.9966    0.4560    0.2090
Li    Li1820        0.8605    0.4585    0.2832
Li    Li1821        0.8744    0.4293    0.4665
Li    Li1822        0.7498    0.4440    0.2840
Li    Li1823        0.7319    0.4129    0.9082
Li    Li1824        0.9908    0.4869    0.8434
Li    Li1825        0.8727    0.4864    0.8996
Li    Li1826        0.8976    0.4659    0.7835
Li    Li1827        0.8586    0.4305    0.9770
Li    Li1828        0.9791    0.5656    0.2188
Li    Li1829        0.7474    0.5377    0.0347
Li    Li1830        0.7572    0.5057    0.4080
Li    Li1831        0.0052    0.5821    0.3545
Li    Li1832        0.0086    0.5570    0.4624
Li    Li1833        0.8744    0.5847    0.6578
Li    Li1834        0.9985    0.5657    0.7153
Li    Li1835        0.7475    0.5394    0.5239
Li    Li1836        0.7513    0.5130    0.9061
Li    Li1837        0.7524    0.5326    0.7782
Li    Li1838        0.7286    0.6112    0.1683
Li    Li1839        0.0095    0.6845    0.0938
Li    Li1840        0.8869    0.6445    0.2094
Li    Li1841        0.9919    0.6578    0.2176
Li    Li1842        0.8739    0.6385    0.4669
Li    Li1843        0.7359    0.6308    0.2741
Li    Li1844        0.7493    0.7124    0.1472
Li    Li1845        0.0046    0.7785    0.1007
Li    Li1846        0.8734    0.7870    0.1559
Li    Li1847        0.7617    0.7120    0.4035
Li    Li1848        0.9934    0.7910    0.3515
Li    Li1849        0.8770    0.7197    0.3527
Li    Li1850        0.8765    0.7951    0.4067
Li    Li1851        0.0238    0.7859    0.5903
Li    Li1852        0.0113    0.7570    0.7173
Li    Li1853        0.0056    0.8907    0.0870
Li    Li1854        0.8755    0.8132    0.0984
Li    Li1855        0.7468    0.8147    0.4024
Li    Li1856        0.8710    0.8085    0.3576
Li    Li1857        0.8739    0.8333    0.4730
Li    Li1858        0.8969    0.8380    0.9684
Li    Li1859        0.9970    0.9934    0.3432
Li    Li1860        0.9975    0.9565    0.7342
