data_max_cluster
_audit_creation_method         'generated by data2config v5.5c'
 
_cell_length_a                  84.92680
_cell_length_b                  87.57400
_cell_length_c                  75.14280
_cell_angle_alpha               90.00000
_cell_angle_beta                96.73700
_cell_angle_gamma               90.00000
 
loop_
_symmetry_equiv_pos_as_xyz
'+x,+y,+z'
 
loop_
_atom_site_type_symbol
_atom_site_label
_atom_site_fract_x
_atom_site_fract_y
_atom_site_fract_z
Li    Li1        0.2346    0.0084    0.1641
Li    Li2        0.0153    0.0783    0.4774
Li    Li3        0.1722    0.0346    0.7105
Li    Li4        0.2225    0.0194    0.6535
Li    Li5        0.0146    0.0575    0.9614
Li    Li6        0.0854    0.0834    0.9262
Li    Li7        0.0391    0.0838    0.8371
Li    Li8        0.2028    0.1340    0.2841
Li    Li9        0.1637    0.1480    0.4699
Li    Li10        0.0898    0.1850    0.4176
Li    Li11        0.0326    0.1887    0.3350
Li    Li12        0.2027    0.1180    0.4015
Li    Li13        0.0764    0.1851    0.6574
Li    Li14        0.1781    0.1314    0.9830
Li    Li15        0.0818    0.1585    0.7973
Li    Li16        0.2019    0.2202    0.4090
Li    Li17        0.0814    0.2610    0.5459
Li    Li18        0.0359    0.2871    0.5910
Li    Li19        0.2169    0.2104    0.6658
Li    Li20        0.0183    0.2867    0.8412
Li    Li21        0.1555    0.3402    0.7206
Li    Li22        0.0835    0.3845    0.6665
Li    Li23        0.0971    0.3988    0.9096
Li    Li24        0.1027    0.4962    0.1520
Li    Li25        0.1676    0.4118    0.0972
Li    Li26        0.2028    0.4119    0.1619
Li    Li27        0.1764    0.4302    0.7030
Li    Li28        0.2046    0.4395    0.7964
Li    Li29        0.1701    0.4334    0.9840
Li    Li30        0.2127    0.5112    0.1613
Li    Li31        0.0901    0.5933    0.4032
Li    Li32        0.1541    0.5645    0.6920
Li    Li33        0.0881    0.5701    0.6427
Li    Li34        0.1684    0.5225    0.6093
Li    Li35        0.1708    0.5088    0.8377
Li    Li36        0.2107    0.6407    0.0385
Li    Li37        0.0310    0.6698    0.2168
Li    Li38        0.0328    0.6919    0.0791
Li    Li39        0.2059    0.6386    0.2945
Li    Li40        0.0841    0.6404    0.3041
Li    Li41        0.0887    0.6795    0.4074
Li    Li42        0.0259    0.6798    0.3386
Li    Li43        0.1916    0.6085    0.5992
Li    Li44        0.1993    0.6111    0.6507
Li    Li45        0.2020    0.6312    0.7691
Li    Li46        0.0909    0.6675    0.7866
Li    Li47        0.0791    0.7966    0.4215
Li    Li48        0.2293    0.7100    0.4216
Li    Li49        0.2358    0.7169    0.6647
Li    Li50        0.1965    0.7127    0.9020
Li    Li51        0.2271    0.8243    0.0184
Li    Li52        0.2205    0.8091    0.1675
Li    Li53        0.0954    0.8610    0.2889
Li    Li54        0.0342    0.9865    0.0769
Li    Li55        0.2073    0.9363    0.2917
Li    Li56        0.0944    0.9845    0.4122
Li    Li57        0.1501    0.9260    0.3489
Li    Li58        0.0249    0.9742    0.3491
Li    Li59        0.0316    0.9612    0.7126
Li    Li60        0.2065    0.9400    0.7847
Li    Li61        0.0925    0.9542    0.8002
Li    Li62        0.0241    0.9880    0.8413
Li    Li63        0.3444    0.0820    0.1640
Li    Li64        0.4092    0.1356    0.2039
Li    Li65        0.4765    0.1119    0.1607
Li    Li66        0.2840    0.1924    0.3299
Li    Li67        0.2941    0.1643    0.7304
Li    Li68        0.3428    0.1810    0.6615
Li    Li69        0.3395    0.1584    0.7911
Li    Li70        0.4257    0.1217    0.8458
Li    Li71        0.2863    0.1892    0.8283
Li    Li72        0.4620    0.1198    0.9174
Li    Li73        0.2850    0.2617    0.1991
Li    Li74        0.4169    0.2388    0.2026
Li    Li75        0.3346    0.2874    0.1653
Li    Li76        0.2984    0.2772    0.1130
Li    Li77        0.4670    0.2143    0.1641
Li    Li78        0.2690    0.2631    0.4710
Li    Li79        0.4118    0.2091    0.3490
Li    Li80        0.4550    0.2409    0.7966
Li    Li81        0.4059    0.2355    0.9707
Li    Li82        0.4517    0.2117    0.9176
Li    Li83        0.4448    0.3370    0.0273
Li    Li84        0.2880    0.3636    0.2225
Li    Li85        0.4180    0.3358    0.2197
Li    Li86        0.3318    0.3701    0.0218
Li    Li87        0.3400    0.3868    0.1503
Li    Li88        0.2776    0.3802    0.0978
Li    Li89        0.4621    0.3191    0.1698
Li    Li90        0.2784    0.3745    0.4716
Li    Li91        0.2821    0.3538    0.7038
Li    Li92        0.4125    0.3389    0.7133
Li    Li93        0.3530    0.3687    0.5258
Li    Li94        0.4093    0.3021    0.6148
Li    Li95        0.4124    0.3310    0.9608
Li    Li96        0.2865    0.3915    0.8336
Li    Li97        0.3924    0.4366    0.2155
Li    Li98        0.3485    0.4746    0.1567
Li    Li99        0.3315    0.4620    0.2878
Li    Li100        0.4323    0.4226    0.3667
Li    Li101        0.4691    0.4449    0.5388
Li    Li102        0.4610    0.4453    0.7880
Li    Li103        0.4183    0.5101    0.3240
Li    Li104        0.2880    0.5523    0.9612
Li    Li105        0.3440    0.6654    0.2958
Li    Li106        0.4488    0.6417    0.5353
Li    Li107        0.4001    0.6310    0.9861
Li    Li108        0.3422    0.6685    0.7953
Li    Li109        0.3494    0.6856    0.9010
Li    Li110        0.4559    0.5927    0.9282
Li    Li111        0.2999    0.7575    0.2228
Li    Li112        0.2881    0.7643    0.4706
Li    Li113        0.4080    0.7357    0.4644
Li    Li114        0.3315    0.7740    0.2734
Li    Li115        0.4221    0.7155    0.3532
Li    Li116        0.3264    0.7649    0.5443
Li    Li117        0.2786    0.7792    0.5826
Li    Li118        0.3406    0.7610    0.7879
Li    Li119        0.3314    0.7893    0.9142
Li    Li120        0.3253    0.8700    0.0131
Li    Li121        0.2699    0.8594    0.7125
Li    Li122        0.4089    0.8374    0.9636
Li    Li123        0.3304    0.8974    0.9266
Li    Li124        0.4622    0.9409    0.0360
Li    Li125        0.4223    0.9454    0.2091
Li    Li126        0.3689    0.9944    0.1703
Li    Li127        0.2764    0.9554    0.4607
Li    Li128        0.3327    0.9973    0.4072
Li    Li129        0.4701    0.9098    0.4159
Li    Li130        0.4547    0.9295    0.5317
Li    Li131        0.2846    0.9697    0.7107
Li    Li132        0.3482    0.9677    0.5347
Li    Li133        0.4167    0.9102    0.5830
Li    Li134        0.3847    0.9344    0.9620
Li    Li135        0.4172    0.9024    0.8237
Li    Li136        0.5724    0.0609    0.0259
Li    Li137        0.5861    0.0929    0.1685
Li    Li138        0.6637    0.0152    0.3505
Li    Li139        0.5154    0.0665    0.9590
Li    Li140        0.7213    0.1335    0.0447
Li    Li141        0.6511    0.1296    0.2186
Li    Li142        0.5908    0.1834    0.1563
Li    Li143        0.5679    0.1819    0.1009
Li    Li144        0.7045    0.1183    0.8967
Li    Li145        0.5867    0.2694    0.0332
Li    Li146        0.5463    0.2824    0.1009
Li    Li147        0.5847    0.2589    0.7980
Li    Li148        0.5824    0.2874    0.9204
Li    Li149        0.6705    0.2120    0.8387
Li    Li150        0.7081    0.3427    0.2781
Li    Li151        0.6668    0.3084    0.3542
Li    Li152        0.5806    0.3928    0.6567
Li    Li153        0.5483    0.3662    0.9653
Li    Li154        0.5869    0.3559    0.7925
Li    Li155        0.5390    0.3886    0.8349
Li    Li156        0.7274    0.3140    0.9045
Li    Li157        0.5412    0.4612    0.2251
Li    Li158        0.7095    0.4170    0.4094
Li    Li159        0.5852    0.4663    0.5425
Li    Li160        0.5799    0.4902    0.6501
Li    Li161        0.7105    0.4449    0.7882
Li    Li162        0.5930    0.4685    0.7767
Li    Li163        0.5909    0.5727    0.1521
Li    Li164        0.5456    0.5864    0.0985
Li    Li165        0.5995    0.5756    0.2729
Li    Li166        0.6659    0.5081    0.3599
Li    Li167        0.5414    0.5857    0.3462
Li    Li168        0.7049    0.5128    0.4172
Li    Li169        0.7118    0.5456    0.7985
Li    Li170        0.5351    0.5617    0.9533
Li    Li171        0.6067    0.5896    0.9131
Li    Li172        0.6663    0.5124    0.8289
Li    Li173        0.7154    0.6448    0.0441
Li    Li174        0.6648    0.6389    0.1947
Li    Li175        0.7152    0.6430    0.2971
Li    Li176        0.5925    0.6491    0.2844
Li    Li177        0.7038    0.6348    0.7890
Li    Li178        0.6726    0.6097    0.8466
Li    Li179        0.6651    0.7400    0.2079
Li    Li180        0.5197    0.7655    0.4664
Li    Li181        0.5914    0.7840    0.3976
Li    Li182        0.6423    0.7215    0.3476
Li    Li183        0.5893    0.8613    0.0380
Li    Li184        0.5922    0.8888    0.1698
Li    Li185        0.6408    0.8168    0.0955
Li    Li186        0.6695    0.8378    0.9624
Li    Li187        0.5729    0.8968    0.9060
Li    Li188        0.5329    0.9936    0.3316
Li    Li189        0.7219    0.9073    0.9188
Li    Li190        0.8338    0.0582    0.3061
Li    Li191        0.7953    0.0894    0.3544
Li    Li192        0.9637    0.0387    0.8033
Li    Li193        0.9207    0.0371    0.9551
Li    Li194        0.7687    0.0886    0.8373
Li    Li195        0.9651    0.1449    0.0412
Li    Li196        0.9199    0.1357    0.2149
Li    Li197        0.8296    0.1670    0.0328
Li    Li198        0.9168    0.1099    0.0851
Li    Li199        0.9615    0.1375    0.2852
Li    Li200        0.9180    0.1384    0.4619
Li    Li201        0.8934    0.1130    0.3339
Li    Li202        0.8747    0.1405    0.9671
Li    Li203        0.8434    0.1943    0.9112
Li    Li204        0.7980    0.1849    0.8459
Li    Li205        0.9632    0.2414    0.0424
Li    Li206        0.9087    0.2365    0.2148
Li    Li207        0.8412    0.2584    0.0425
Li    Li208        0.9210    0.2256    0.0980
Li    Li209        0.7877    0.2731    0.1067
Li    Li210        0.7939    0.2687    0.4782
Li    Li211        0.8702    0.2849    0.4179
Li    Li212        0.9060    0.2110    0.3413
Li    Li213        0.9179    0.2369    0.7183
Li    Li214        0.9148    0.2139    0.5856
Li    Li215        0.7737    0.2772    0.6029
Li    Li216        0.7677    0.2901    0.8291
Li    Li217        0.9678    0.3437    0.0429
Li    Li218        0.7862    0.3624    0.2214
Li    Li219        0.9154    0.3126    0.0787
Li    Li220        0.9608    0.3436    0.2799
Li    Li221        0.9081    0.3472    0.4673
Li    Li222        0.8084    0.3594    0.2674
Li    Li223        0.9707    0.3340    0.5361
Li    Li224        0.7830    0.3638    0.7012
Li    Li225        0.8441    0.3880    0.6594
Li    Li226        0.9198    0.3094    0.5895
Li    Li227        0.7821    0.3883    0.6025
Li    Li228        0.8520    0.3541    0.7934
Li    Li229        0.7969    0.3929    0.8431
Li    Li230        0.7761    0.4690    0.2267
Li    Li231        0.8332    0.4621    0.0277
Li    Li232        0.8388    0.4987    0.1622
Li    Li233        0.8501    0.4724    0.2770
Li    Li234        0.9132    0.4089    0.3349
Li    Li235        0.9891    0.4103    0.6675
Li    Li236        0.8998    0.4404    0.9687
Li    Li237        0.9579    0.4155    0.9001
Li    Li238        0.9004    0.6418    0.9661
Li    Li239        0.8307    0.6637    0.7665
Li    Li240        0.7817    0.6920    0.8302
Li    Li241        0.9507    0.6157    0.9220
Li    Li242        0.7842    0.7644    0.2183
Li    Li243        0.9224    0.7590    0.1928
Li    Li244        0.8337    0.7900    0.1830
Li    Li245        0.9646    0.7099    0.1592
Li    Li246        0.7877    0.7655    0.9561
Li    Li247        0.9000    0.7337    0.9666
Li    Li248        0.8588    0.7865    0.9315
Li    Li249        0.9613    0.8172    0.1587
Li    Li250        0.8409    0.8892    0.9229
Li    Li251        0.8459    0.9539    0.2892
Li    Li252        0.7941    0.9946    0.8259
Li    Li253        0.2045    0.0367    0.1778
Li    Li254        0.1814    0.0320    0.3229
Li    Li255        0.0808    0.0711    0.4300
Li    Li256        0.1956    0.0316    0.4269
Li    Li257        0.0430    0.0594    0.3237
Li    Li258        0.2021    0.0120    0.2992
Li    Li259        0.0775    0.0893    0.3034
Li    Li260        0.1785    0.0017    0.4427
Li    Li261        0.2100    0.0437    0.6936
Li    Li262        0.0429    0.0625    0.8208
Li    Li263        0.0442    0.0832    0.9431
Li    Li264        0.0947    0.0919    0.8053
Li    Li265        0.2165    0.1156    0.0595
Li    Li266        0.1734    0.1405    0.3236
Li    Li267        0.2229    0.1427    0.4460
Li    Li268        0.0484    0.1905    0.4463
Li    Li269        0.2246    0.1083    0.3105
Li    Li270        0.0756    0.1883    0.3065
Li    Li271        0.1729    0.1389    0.5750
Li    Li272        0.2038    0.1395    0.6703
Li    Li273        0.0433    0.1642    0.5654
Li    Li274        0.0494    0.1609    0.7118
Li    Li275        0.0839    0.1750    0.5531
Li    Li276        0.1701    0.1133    0.6959
Li    Li277        0.1311    0.1406    0.8207
Li    Li278        0.0974    0.1617    0.9362
Li    Li279        0.0438    0.1669    0.8261
Li    Li280        0.0487    0.1900    0.9426
Li    Li281        0.1720    0.1089    0.9364
Li    Li282        0.2105    0.2400    0.1824
Li    Li283        0.0505    0.2802    0.2008
Li    Li284        0.2093    0.2106    0.0578
Li    Li285        0.0920    0.2548    0.4337
Li    Li286        0.2266    0.2494    0.4491
Li    Li287        0.0476    0.2865    0.4513
Li    Li288        0.1798    0.2164    0.4487
Li    Li289        0.1712    0.2297    0.5768
Li    Li290        0.0696    0.2583    0.6826
Li    Li291        0.2193    0.2373    0.6794
Li    Li292        0.0489    0.2579    0.5693
Li    Li293        0.0491    0.2902    0.6952
Li    Li294        0.2035    0.2185    0.5450
Li    Li295        0.1794    0.2204    0.6926
Li    Li296        0.1666    0.2247    0.8256
Li    Li297        0.0714    0.2570    0.9277
Li    Li298        0.2061    0.2262    0.9430
Li    Li299        0.0379    0.2576    0.8119
Li    Li300        0.0382    0.2902    0.9447
Li    Li301        0.0789    0.2849    0.8035
Li    Li302        0.1780    0.2100    0.9480
Li    Li303        0.1750    0.3338    0.0749
Li    Li304        0.0473    0.3670    0.1788
Li    Li305        0.2141    0.3468    0.1836
Li    Li306        0.0510    0.3543    0.0668
Li    Li307        0.1935    0.3064    0.0583
Li    Li308        0.0991    0.3544    0.6768
Li    Li309        0.1817    0.3318    0.6759
Li    Li310        0.0477    0.3827    0.6975
Li    Li311        0.0811    0.3965    0.5536
Li    Li312        0.1682    0.3395    0.8231
Li    Li313        0.0968    0.3617    0.9338
Li    Li314        0.2099    0.3325    0.9291
Li    Li315        0.0432    0.3661    0.8273
Li    Li316        0.0423    0.3869    0.9534
Li    Li317        0.1739    0.3112    0.9507
Li    Li318        0.1441    0.4372    0.0596
Li    Li319        0.0748    0.4623    0.1690
Li    Li320        0.2031    0.4340    0.1711
Li    Li321        0.0441    0.4850    0.1931
Li    Li322        0.2047    0.4098    0.0614
Li    Li323        0.1681    0.4093    0.6911
Li    Li324        0.1728    0.4227    0.8518
Li    Li325        0.2045    0.4352    0.9243
Li    Li326        0.1721    0.4144    0.9480
Li    Li327        0.2256    0.5438    0.1809
Li    Li328        0.1722    0.5313    0.1812
Li    Li329        0.0773    0.5616    0.4217
Li    Li330        0.0486    0.5700    0.3294
Li    Li331        0.0859    0.6021    0.4306
Li    Li332        0.0792    0.5938    0.2942
Li    Li333        0.2009    0.5290    0.6764
Li    Li334        0.1848    0.5179    0.5591
Li    Li335        0.0905    0.5835    0.5739
Li    Li336        0.1719    0.5320    0.8307
Li    Li337        0.2098    0.5352    0.9250
Li    Li338        0.0528    0.5677    0.8246
Li    Li339        0.2022    0.5138    0.8032
Li    Li340        0.1725    0.6358    0.0743
Li    Li341        0.0313    0.6872    0.1960
Li    Li342        0.2284    0.6073    0.0499
Li    Li343        0.0817    0.6854    0.0555
Li    Li344        0.1618    0.6322    0.3207
Li    Li345        0.0838    0.6607    0.4411
Li    Li346        0.2211    0.6249    0.4441
Li    Li347        0.0446    0.6636    0.3309
Li    Li348        0.0346    0.6950    0.4252
Li    Li349        0.2245    0.6033    0.3143
Li    Li350        0.1707    0.6064    0.4440
Li    Li351        0.2162    0.6115    0.5798
Li    Li352        0.1651    0.6398    0.8210
Li    Li353        0.2024    0.6391    0.9277
Li    Li354        0.0537    0.6639    0.8202
Li    Li355        0.0514    0.6928    0.9479
Li    Li356        0.2026    0.6090    0.8031
Li    Li357        0.0727    0.6835    0.8033
Li    Li358        0.1853    0.6197    0.9444
Li    Li359        0.1591    0.7401    0.0690
Li    Li360        0.1983    0.7113    0.0601
Li    Li361        0.2135    0.7431    0.4271
Li    Li362        0.0416    0.7661    0.3185
Li    Li363        0.0439    0.7899    0.4544
Li    Li364        0.1752    0.7079    0.4314
Li    Li365        0.2012    0.7381    0.9337
Li    Li366        0.2054    0.7127    0.8039
Li    Li367        0.1684    0.7194    0.9586
Li    Li368        0.1751    0.8322    0.0775
Li    Li369        0.0774    0.8667    0.1692
Li    Li370        0.1992    0.8365    0.1766
Li    Li371        0.0339    0.8618    0.0682
Li    Li372        0.0384    0.8617    0.1979
Li    Li373        0.2013    0.8079    0.0718
Li    Li374        0.0765    0.8848    0.0535
Li    Li375        0.1767    0.8159    0.1991
Li    Li376        0.1744    0.8429    0.3232
Li    Li377        0.0714    0.8536    0.4271
Li    Li378        0.2006    0.8135    0.3013
Li    Li379        0.0826    0.8656    0.6794
Li    Li380        0.0433    0.8879    0.6952
Li    Li381        0.0724    0.8653    0.9296
Li    Li382        0.0522    0.8609    0.8159
Li    Li383        0.0334    0.8922    0.9383
Li    Li384        0.0892    0.8745    0.8082
Li    Li385        0.0413    0.9596    0.0719
Li    Li386        0.0708    0.9824    0.0470
Li    Li387        0.1711    0.9448    0.3255
Li    Li388        0.0787    0.9652    0.4380
Li    Li389        0.2001    0.9361    0.4249
Li    Li390        0.0506    0.9600    0.3230
Li    Li391        0.0471    0.9923    0.4434
Li    Li392        0.2011    0.9119    0.3170
Li    Li393        0.0723    0.9938    0.3065
Li    Li394        0.1736    0.9210    0.4498
Li    Li395        0.0826    0.9592    0.6761
Li    Li396        0.1966    0.9379    0.6823
Li    Li397        0.0947    0.9934    0.5531
Li    Li398        0.1624    0.9114    0.6971
Li    Li399        0.1809    0.9304    0.8229
Li    Li400        0.2391    0.9419    0.9383
Li    Li401        0.0565    0.9516    0.8165
Li    Li402        0.0288    0.9920    0.9448
Li    Li403        0.0781    0.9888    0.7975
Li    Li404        0.4503    0.0422    0.1816
Li    Li405        0.3439    0.0595    0.4277
Li    Li406        0.4287    0.0206    0.4437
Li    Li407        0.3263    0.1640    0.1772
Li    Li408        0.4510    0.1368    0.1854
Li    Li409        0.3280    0.1642    0.0739
Li    Li410        0.4206    0.1084    0.1935
Li    Li411        0.2941    0.1628    0.3125
Li    Li412        0.3393    0.1977    0.2992
Li    Li413        0.3349    0.1626    0.6805
Li    Li414        0.4104    0.1373    0.8156
Li    Li415        0.3439    0.1643    0.9312
Li    Li416        0.4165    0.1364    0.9222
Li    Li417        0.3021    0.1851    0.9468
Li    Li418        0.4532    0.1143    0.8010
Li    Li419        0.3280    0.1841    0.8020
Li    Li420        0.4250    0.1147    0.9410
Li    Li421        0.3453    0.2586    0.1790
Li    Li422        0.4556    0.2330    0.1758
Li    Li423        0.2967    0.2594    0.0754
Li    Li424        0.2925    0.2934    0.1986
Li    Li425        0.4409    0.2039    0.0556
Li    Li426        0.3268    0.2847    0.0485
Li    Li427        0.4176    0.2101    0.1963
Li    Li428        0.4247    0.2380    0.3242
Li    Li429        0.4656    0.2268    0.2970
Li    Li430        0.4573    0.2317    0.6802
Li    Li431        0.4012    0.2109    0.6963
Li    Li432        0.4214    0.2340    0.8228
Li    Li433        0.3314    0.2536    0.9369
Li    Li434        0.4554    0.2414    0.9350
Li    Li435        0.3273    0.3033    0.9523
Li    Li436        0.4576    0.2171    0.8059
Li    Li437        0.3264    0.2823    0.7954
Li    Li438        0.4247    0.2158    0.9468
Li    Li439        0.4188    0.3438    0.0706
Li    Li440        0.3241    0.3715    0.1794
Li    Li441        0.2997    0.3892    0.2029
Li    Li442        0.4564    0.3151    0.0564
Li    Li443        0.3465    0.3906    0.0561
Li    Li444        0.4473    0.3137    0.2008
Li    Li445        0.2875    0.3917    0.4493
Li    Li446        0.4272    0.3321    0.5688
Li    Li447        0.3233    0.3633    0.6748
Li    Li448        0.4598    0.3396    0.6801
Li    Li449        0.2989    0.3628    0.5632
Li    Li450        0.2979    0.3865    0.6962
Li    Li451        0.4481    0.3198    0.5499
Li    Li452        0.4248    0.3115    0.7054
Li    Li453        0.4158    0.3399    0.8242
Li    Li454        0.4500    0.3346    0.9242
Li    Li455        0.2804    0.3553    0.8182
Li    Li456        0.4720    0.3110    0.8018
Li    Li457        0.3354    0.3899    0.8058
Li    Li458        0.4032    0.3323    0.9285
Li    Li459        0.4246    0.4384    0.0711
Li    Li460        0.3317    0.4617    0.1758
Li    Li461        0.2947    0.4597    0.0642
Li    Li462        0.3012    0.4864    0.1979
Li    Li463        0.4042    0.4061    0.1958
Li    Li464        0.4561    0.4396    0.4268
Li    Li465        0.2956    0.4634    0.3206
Li    Li466        0.3484    0.4783    0.3130
Li    Li467        0.4171    0.4395    0.5722
Li    Li468        0.4544    0.4117    0.5568
Li    Li469        0.4105    0.4019    0.6934
Li    Li470        0.4250    0.4379    0.8152
Li    Li471        0.3062    0.4654    0.8177
Li    Li472        0.2750    0.5025    0.9430
Li    Li473        0.4573    0.4221    0.7888
Li    Li474        0.4537    0.5411    0.1865
Li    Li475        0.2727    0.5603    0.0656
Li    Li476        0.4562    0.5078    0.0473
Li    Li477        0.3308    0.5804    0.0468
Li    Li478        0.4272    0.5269    0.2041
Li    Li479        0.4237    0.5313    0.3394
Li    Li480        0.3325    0.5892    0.4245
Li    Li481        0.2952    0.5600    0.3203
Li    Li482        0.4629    0.5082    0.3091
Li    Li483        0.4342    0.5066    0.4424
Li    Li484        0.2991    0.5893    0.6927
Li    Li485        0.3232    0.5641    0.9223
Li    Li486        0.4530    0.5386    0.9260
Li    Li487        0.2960    0.5608    0.8193
Li    Li488        0.4200    0.6365    0.0694
Li    Li489        0.3367    0.6674    0.1824
Li    Li490        0.3039    0.6607    0.0632
Li    Li491        0.2884    0.6693    0.2041
Li    Li492        0.4451    0.6046    0.0632
Li    Li493        0.3283    0.6835    0.0573
Li    Li494        0.3137    0.6726    0.4235
Li    Li495        0.3000    0.6646    0.3226
Li    Li496        0.2924    0.6835    0.4417
Li    Li497        0.4257    0.6146    0.4552
Li    Li498        0.4656    0.6151    0.5566
Li    Li499        0.3242    0.6869    0.5555
Li    Li500        0.4248    0.6394    0.8181
Li    Li501        0.3389    0.6550    0.9258
Li    Li502        0.4538    0.6272    0.9165
Li    Li503        0.3079    0.6583    0.8220
Li    Li504        0.3016    0.6907    0.9390
Li    Li505        0.4474    0.6114    0.8037
Li    Li506        0.4132    0.6093    0.9422
Li    Li507        0.3284    0.7629    0.1747
Li    Li508        0.2882    0.7956    0.1985
Li    Li509        0.3497    0.7883    0.0623
Li    Li510        0.4009    0.7454    0.3182
Li    Li511        0.3342    0.7607    0.4291
Li    Li512        0.4520    0.7291    0.4266
Li    Li513        0.2830    0.7592    0.3163
Li    Li514        0.4308    0.7039    0.3078
Li    Li515        0.3329    0.7842    0.3083
Li    Li516        0.4170    0.7127    0.4464
Li    Li517        0.2993    0.7704    0.5656
Li    Li518        0.3153    0.7640    0.9304
Li    Li519        0.3123    0.7595    0.8226
Li    Li520        0.3077    0.7972    0.9516
Li    Li521        0.3317    0.7890    0.8033
Li    Li522        0.4166    0.8403    0.0744
Li    Li523        0.3197    0.8590    0.1859
Li    Li524        0.2991    0.8652    0.0763
Li    Li525        0.4570    0.8239    0.0366
Li    Li526        0.3257    0.8872    0.0500
Li    Li527        0.3483    0.8584    0.4431
Li    Li528        0.4498    0.8367    0.4287
Li    Li529        0.4244    0.8088    0.4399
Li    Li530        0.2943    0.8403    0.6806
Li    Li531        0.2913    0.8740    0.6701
Li    Li532        0.3251    0.8626    0.9295
Li    Li533        0.4415    0.8273    0.9337
Li    Li534        0.2887    0.8706    0.8216
Li    Li535        0.2960    0.8847    0.9540
Li    Li536        0.3313    0.8807    0.8028
Li    Li537        0.4234    0.9238    0.0671
Li    Li538        0.3299    0.9560    0.1850
Li    Li539        0.4533    0.9337    0.1662
Li    Li540        0.3058    0.9934    0.1996
Li    Li541        0.4231    0.9214    0.2169
Li    Li542        0.4193    0.9384    0.3041
Li    Li543        0.3337    0.9623    0.4287
Li    Li544        0.2841    0.9452    0.2881
Li    Li545        0.2904    0.9907    0.4477
Li    Li546        0.4537    0.9060    0.3002
Li    Li547        0.3305    0.9815    0.3036
Li    Li548        0.4220    0.9081    0.4522
Li    Li549        0.4228    0.9375    0.5753
Li    Li550        0.4452    0.9029    0.5566
Li    Li551        0.4224    0.9372    0.8180
Li    Li552        0.4669    0.9244    0.9313
Li    Li553        0.3032    0.9533    0.8213
Li    Li554        0.2776    0.9946    0.9397
Li    Li555        0.4502    0.9147    0.7984
Li    Li556        0.3337    0.9871    0.8059
Li    Li557        0.4213    0.9140    0.9506
Li    Li558        0.5751    0.0653    0.1735
Li    Li559        0.5614    0.0762    0.0562
Li    Li560        0.5305    0.0888    0.1921
Li    Li561        0.6014    0.0933    0.0524
Li    Li562        0.6640    0.0354    0.3201
Li    Li563        0.5384    0.0492    0.3160
Li    Li564        0.7092    0.0048    0.3078
Li    Li565        0.5770    0.0829    0.2993
Li    Li566        0.5472    0.0638    0.5733
Li    Li567        0.6617    0.0039    0.9434
Li    Li568        0.6744    0.1426    0.0798
Li    Li569        0.5862    0.1538    0.1802
Li    Li570        0.6976    0.1333    0.1775
Li    Li571        0.5399    0.1601    0.0749
Li    Li572        0.5486    0.1855    0.1853
Li    Li573        0.7097    0.1118    0.0541
Li    Li574        0.5752    0.1806    0.0518
Li    Li575        0.7026    0.1322    0.9361
Li    Li576        0.5595    0.1679    0.8230
Li    Li577        0.7159    0.1047    0.8012
Li    Li578        0.6531    0.1211    0.9429
Li    Li579        0.5761    0.2837    0.0527
Li    Li580        0.6604    0.2400    0.8197
Li    Li581        0.5802    0.2613    0.9326
Li    Li582        0.7093    0.2360    0.9227
Li    Li583        0.5502    0.2652    0.8237
Li    Li584        0.5367    0.2995    0.9264
Li    Li585        0.7089    0.2094    0.8050
Li    Li586        0.5341    0.3850    0.1952
Li    Li587        0.6719    0.3338    0.3224
Li    Li588        0.5495    0.3622    0.3238
Li    Li589        0.7064    0.3097    0.3095
Li    Li590        0.5691    0.4032    0.3153
Li    Li591        0.5891    0.3681    0.6800
Li    Li592        0.5477    0.3707    0.5822
Li    Li593        0.5571    0.3731    0.6906
Li    Li594        0.5509    0.3847    0.5506
Li    Li595        0.6606    0.3418    0.8208
Li    Li596        0.5824    0.3617    0.9282
Li    Li597        0.7070    0.3341    0.9180
Li    Li598        0.5506    0.3504    0.8152
Li    Li599        0.5962    0.3924    0.8195
Li    Li600        0.5541    0.4565    0.1771
Li    Li601        0.5352    0.4882    0.1953
Li    Li602        0.5897    0.4648    0.4308
Li    Li603        0.7098    0.4341    0.4302
Li    Li604        0.5486    0.4860    0.4491
Li    Li605        0.7132    0.4137    0.3188
Li    Li606        0.6672    0.4266    0.4367
Li    Li607        0.5410    0.4593    0.5754
Li    Li608        0.5479    0.4859    0.6980
Li    Li609        0.5761    0.4883    0.5509
Li    Li610        0.6689    0.4270    0.6910
Li    Li611        0.6879    0.4227    0.8201
Li    Li612        0.5718    0.4784    0.9170
Li    Li613        0.5764    0.4859    0.7999
Li    Li614        0.5825    0.5675    0.1781
Li    Li615        0.5511    0.5705    0.0662
Li    Li616        0.5737    0.5872    0.0573
Li    Li617        0.7011    0.5343    0.4251
Li    Li618        0.5424    0.5540    0.3287
Li    Li619        0.6763    0.5053    0.4453
Li    Li620        0.5923    0.5923    0.5560
Li    Li621        0.6744    0.5127    0.6973
Li    Li622        0.6746    0.5372    0.8184
Li    Li623        0.7062    0.5245    0.9047
Li    Li624        0.5377    0.5616    0.8220
Li    Li625        0.7116    0.5227    0.8192
Li    Li626        0.6616    0.6412    0.0724
Li    Li627        0.7010    0.6437    0.1744
Li    Li628        0.5500    0.6903    0.1985
Li    Li629        0.5740    0.6718    0.0671
Li    Li630        0.6542    0.6035    0.2007
Li    Li631        0.6726    0.6265    0.3275
Li    Li632        0.5847    0.6586    0.4296
Li    Li633        0.5618    0.6685    0.3198
Li    Li634        0.5629    0.6782    0.4419
Li    Li635        0.7104    0.6115    0.3064
Li    Li636        0.5705    0.6738    0.2693
Li    Li637        0.6784    0.6501    0.8259
Li    Li638        0.7194    0.6402    0.9284
Li    Li639        0.5485    0.6874    0.9503
Li    Li640        0.7081    0.6131    0.8044
Li    Li641        0.5778    0.7687    0.1758
Li    Li642        0.7243    0.6970    0.0632
Li    Li643        0.6719    0.7352    0.3243
Li    Li644        0.5771    0.7648    0.4194
Li    Li645        0.5430    0.7864    0.4468
Li    Li646        0.7012    0.7165    0.2924
Li    Li647        0.5979    0.7699    0.3288
Li    Li648        0.6685    0.7185    0.4493
Li    Li649        0.5479    0.8539    0.0750
Li    Li650        0.7158    0.8069    0.0494
Li    Li651        0.5870    0.8944    0.0612
Li    Li652        0.6498    0.8110    0.1928
Li    Li653        0.6682    0.8357    0.3239
Li    Li654        0.5816    0.8793    0.2769
Li    Li655        0.6575    0.8159    0.4409
Li    Li656        0.7079    0.8371    0.9369
Li    Li657        0.5436    0.8875    0.9464
Li    Li658        0.6693    0.8189    0.9371
Li    Li659        0.5357    0.9888    0.1941
Li    Li660        0.6694    0.9112    0.1938
Li    Li661        0.5429    0.9638    0.3194
Li    Li662        0.5793    0.9880    0.2901
Li    Li663        0.6962    0.9455    0.9416
Li    Li664        0.6646    0.9188    0.9501
Li    Li665        0.7956    0.0662    0.0815
Li    Li666        0.9129    0.0451    0.3272
Li    Li667        0.7857    0.0580    0.3227
Li    Li668        0.9560    0.0096    0.3059
Li    Li669        0.9188    0.0400    0.5694
Li    Li670        0.9409    0.0315    0.8132
Li    Li671        0.8281    0.0653    0.9274
Li    Li672        0.9462    0.0345    0.9355
Li    Li673        0.7969    0.0597    0.8172
Li    Li674        0.7957    0.0847    0.9431
Li    Li675        0.8247    0.0926    0.8012
Li    Li676        0.9494    0.0049    0.9484
Li    Li677        0.9231    0.1351    0.0674
Li    Li678        0.8120    0.1645    0.1784
Li    Li679        0.9615    0.1345    0.1773
Li    Li680        0.7970    0.1628    0.0753
Li    Li681        0.8290    0.1900    0.0583
Li    Li682        0.9231    0.1105    0.1876
Li    Li683        0.9195    0.1379    0.3256
Li    Li684        0.9524    0.1350    0.4322
Li    Li685        0.9636    0.1049    0.3012
Li    Li686        0.9053    0.1249    0.5678
Li    Li687        0.9550    0.1104    0.5477
Li    Li688        0.9212    0.1412    0.8162
Li    Li689        0.8408    0.1658    0.9432
Li    Li690        0.8264    0.1875    0.7987
Li    Li691        0.9112    0.2451    0.0675
Li    Li692        0.8310    0.2709    0.1763
Li    Li693        0.9539    0.2368    0.1828
Li    Li694        0.7748    0.2504    0.0685
Li    Li695        0.9535    0.2140    0.0582
Li    Li696        0.8268    0.2897    0.0518
Li    Li697        0.9259    0.2289    0.1797
Li    Li698        0.9212    0.2368    0.3259
Li    Li699        0.8308    0.2641    0.4281
Li    Li700        0.7894    0.2915    0.4486
Li    Li701        0.9606    0.2109    0.3104
Li    Li702        0.8328    0.2913    0.3093
Li    Li703        0.8320    0.2622    0.6769
Li    Li704        0.7945    0.2575    0.5759
Li    Li705        0.7929    0.2895    0.7045
Li    Li706        0.8434    0.2920    0.5592
Li    Li707        0.9178    0.2147    0.6907
Li    Li708        0.9051    0.2467    0.8259
Li    Li709        0.8004    0.2899    0.9444
Li    Li710        0.8214    0.2931    0.8098
Li    Li711        0.9079    0.3469    0.0747
Li    Li712        0.9578    0.3357    0.1762
Li    Li713        0.7983    0.3854    0.2055
Li    Li714        0.8388    0.3832    0.0621
Li    Li715        0.8358    0.3592    0.4311
Li    Li716        0.9659    0.3307    0.4343
Li    Li717        0.7971    0.3891    0.4548
Li    Li718        0.9514    0.3119    0.3084
Li    Li719        0.9221    0.3121    0.4609
Li    Li720        0.9178    0.3203    0.5475
Li    Li721        0.8290    0.3634    0.6764
Li    Li722        0.9674    0.3339    0.6836
Li    Li723        0.7825    0.3550    0.5694
Li    Li724        0.7940    0.3863    0.6954
Li    Li725        0.9161    0.3328    0.8196
Li    Li726        0.8304    0.3850    0.9222
Li    Li727        0.9549    0.3380    0.9247
Li    Li728        0.8001    0.3620    0.8197
Li    Li729        0.7889    0.3906    0.9436
Li    Li730        0.8470    0.3908    0.8065
Li    Li731        0.9218    0.3104    0.9482
Li    Li732        0.8242    0.4672    0.1821
Li    Li733        0.7928    0.4840    0.1971
Li    Li734        0.8242    0.4810    0.0448
Li    Li735        0.9321    0.4313    0.3225
Li    Li736        0.8335    0.4665    0.3239
Li    Li737        0.9533    0.4130    0.2936
Li    Li738        0.8210    0.4643    0.9287
Li    Li739        0.9643    0.4436    0.9297
Li    Li740        0.7850    0.4949    0.9461
Li    Li741        0.9153    0.4340    0.9392
Li    Li742        0.8076    0.6596    0.1927
Li    Li743        0.8002    0.6834    0.2011
Li    Li744        0.9830    0.6312    0.2982
Li    Li745        0.9237    0.6429    0.8201
Li    Li746        0.9263    0.6324    0.9196
Li    Li747        0.7976    0.6609    0.8191
Li    Li748        0.8066    0.6887    0.9362
Li    Li749        0.9557    0.6130    0.8009
Li    Li750        0.8085    0.6799    0.8046
Li    Li751        0.8446    0.7627    0.1870
Li    Li752        0.9536    0.7350    0.1774
Li    Li753        0.7864    0.7615    0.0655
Li    Li754        0.8046    0.7886    0.1993
Li    Li755        0.9485    0.7050    0.0549
Li    Li756        0.9176    0.7282    0.1904
Li    Li757        0.9545    0.7429    0.4271
Li    Li758        0.9592    0.7116    0.3083
Li    Li759        0.8247    0.7636    0.9289
Li    Li760        0.9341    0.7483    0.9410
Li    Li761        0.7946    0.7909    0.9489
Li    Li762        0.9112    0.7043    0.9416
Li    Li763        0.8363    0.8617    0.1827
Li    Li764        0.9527    0.8474    0.1862
Li    Li765        0.9108    0.8122    0.1900
Li    Li766        0.9641    0.8368    0.4365
Li    Li767        0.8292    0.8520    0.9201
Li    Li768        0.8042    0.8799    0.9468
Li    Li769        0.9226    0.9444    0.3207
Li    Li770        0.8011    0.9682    0.3134
Li    Li771        0.8288    0.9653    0.6718
Li    Li772        0.9282    0.9479    0.6788
Li    Li773        0.9146    0.9149    0.6943
Li    Li774        0.9570    0.9378    0.9257
Li    Li775        0.9659    0.9100    0.8036
Li    Li776        0.8281    0.9847    0.8017
Li    Li777        0.9146    0.9098    0.9403
Li    Li778        0.2238    0.0028    0.0492
Li    Li779        0.1340    0.0324    0.3160
Li    Li780        0.2615    0.0075    0.3391
Li    Li781        0.0860    0.0139    0.4338
Li    Li782        0.1389    0.0099    0.6923
Li    Li783        0.1044    0.0546    0.9461
Li    Li784        0.0098    0.0632    0.8155
Li    Li785        0.1212    0.0910    0.7971
Li    Li786        0.1239    0.1339    0.2998
Li    Li787        0.2383    0.1324    0.4094
Li    Li788        0.0250    0.1543    0.3212
Li    Li789        0.2456    0.0961    0.3255
Li    Li790        0.1391    0.1837    0.3210
Li    Li791        0.1281    0.1112    0.4400
Li    Li792        0.1280    0.1377    0.5606
Li    Li793        0.2412    0.1333    0.6797
Li    Li794        0.1113    0.1351    0.8380
Li    Li795        0.1297    0.1656    0.9143
Li    Li796        0.0409    0.1485    0.8052
Li    Li797        0.0084    0.1798    0.9471
Li    Li798        0.1554    0.1222    0.9203
Li    Li799        0.2380    0.2395    0.1859
Li    Li800        0.2394    0.2078    0.0587
Li    Li801        0.1242    0.2489    0.4554
Li    Li802        0.2327    0.2402    0.4197
Li    Li803        0.1329    0.2146    0.4470
Li    Li804        0.1190    0.2631    0.6838
Li    Li805        0.2310    0.2153    0.5527
Li    Li806        0.1361    0.2246    0.6882
Li    Li807        0.2421    0.2334    0.9236
Li    Li808        0.0184    0.3015    0.9319
Li    Li809        0.1033    0.2731    0.8232
Li    Li810        0.1320    0.2114    0.9440
Li    Li811        0.1401    0.3404    0.0751
Li    Li812        0.1130    0.3643    0.1787
Li    Li813        0.0061    0.3600    0.0625
Li    Li814        0.2376    0.3060    0.0714
Li    Li815        0.1141    0.3856    0.0600
Li    Li816        0.1379    0.3223    0.1993
Li    Li817        0.2604    0.3427    0.6747
Li    Li818        0.0069    0.3928    0.7074
Li    Li819        0.2321    0.3396    0.9385
Li    Li820        0.0185    0.3862    0.9409
Li    Li821        0.1220    0.3189    0.9530
Li    Li822        0.2233    0.4465    0.1874
Li    Li823        0.0205    0.4777    0.2237
Li    Li824        0.2753    0.4138    0.0667
Li    Li825        0.1300    0.4166    0.1772
Li    Li826        0.2654    0.4335    0.4128
Li    Li827        0.2473    0.4413    0.6792
Li    Li828        0.1642    0.4407    0.8257
Li    Li829        0.1129    0.4634    0.9367
Li    Li830        0.2408    0.4194    0.9347
Li    Li831        0.1309    0.4151    0.9462
Li    Li832        0.2449    0.5308    0.1741
Li    Li833        0.1402    0.5095    0.1858
Li    Li834        0.1107    0.5815    0.4073
Li    Li835        0.0315    0.5552    0.3113
Li    Li836        0.1187    0.5731    0.5424
Li    Li837        0.2386    0.5275    0.9240
Li    Li838        0.0219    0.5611    0.8185
Li    Li839        0.2395    0.5129    0.8050
Li    Li840        0.1412    0.6391    0.0672
Li    Li841        0.2399    0.6364    0.1797
Li    Li842        0.1442    0.6941    0.0572
Li    Li843        0.0996    0.6346    0.3344
Li    Li844        0.0171    0.6603    0.3038
Li    Li845        0.1374    0.6144    0.4487
Li    Li846        0.2455    0.6213    0.5466
Li    Li847        0.1489    0.6046    0.6946
Li    Li848        0.1406    0.6433    0.8098
Li    Li849        0.0083    0.6825    0.9629
Li    Li850        0.2520    0.6075    0.8154
Li    Li851        0.1116    0.6895    0.7976
Li    Li852        0.1389    0.6172    0.9440
Li    Li853        0.2434    0.7123    0.0388
Li    Li854        0.2410    0.7463    0.4381
Li    Li855        0.2796    0.7193    0.3087
Li    Li856        0.2477    0.7149    0.8169
Li    Li857        0.2759    0.8424    0.1788
Li    Li858        0.2421    0.8105    0.0673
Li    Li859        0.1420    0.8940    0.0753
Li    Li860        0.1057    0.8716    0.3934
Li    Li861        0.1179    0.8804    0.3160
Li    Li862        0.0036    0.8968    0.6875
Li    Li863        0.1137    0.8705    0.9032
Li    Li864        0.0213    0.8535    0.8149
Li    Li865        0.0014    0.8800    0.9595
Li    Li866        0.1161    0.8877    0.8202
Li    Li867        0.1084    0.9491    0.0767
Li    Li868        0.1384    0.9407    0.3153
Li    Li869        0.1009    0.9976    0.3139
Li    Li870        0.1328    0.9133    0.4365
Li    Li871        0.1412    0.9362    0.5742
Li    Li872        0.1100    0.9738    0.6886
Li    Li873        0.2222    0.9374    0.6836
Li    Li874        0.1212    0.9856    0.5609
Li    Li875        0.1311    0.9172    0.6955
Li    Li876        0.1408    0.9447    0.8185
Li    Li877        0.2737    0.9500    0.9281
Li    Li878        0.0092    0.9640    0.8330
Li    Li879        0.9687    0.9755    0.9452
Li    Li880        0.4933    0.0349    0.1729
Li    Li881        0.5003    0.0433    0.4492
Li    Li882        0.4775    0.0036    0.3212
Li    Li883        0.3711    0.0214    0.4476
Li    Li884        0.3676    0.0141    0.9493
Li    Li885        0.3517    0.1588    0.1866
Li    Li886        0.2696    0.1611    0.0597
Li    Li887        0.3818    0.1159    0.1890
Li    Li888        0.2590    0.1575    0.3110
Li    Li889        0.2726    0.1907    0.4488
Li    Li890        0.3634    0.1617    0.6529
Li    Li891        0.2418    0.1878    0.6958
Li    Li892        0.2896    0.1835    0.8027
Li    Li893        0.3541    0.1953    0.8137
Li    Li894        0.2375    0.2577    0.0518
Li    Li895        0.5298    0.2016    0.0486
Li    Li896        0.3644    0.2031    0.2017
Li    Li897        0.3903    0.2289    0.3022
Li    Li898        0.4025    0.2800    0.2956
Li    Li899        0.3723    0.2164    0.6981
Li    Li900        0.3773    0.2293    0.8126
Li    Li901        0.2707    0.2542    0.8066
Li    Li902        0.2380    0.3095    0.9342
Li    Li903        0.4019    0.2071    0.9280
Li    Li904        0.3667    0.3626    0.1686
Li    Li905        0.2576    0.3611    0.0756
Li    Li906        0.3739    0.3962    0.0520
Li    Li907        0.5204    0.3084    0.2996
Li    Li908        0.3792    0.3370    0.5717
Li    Li909        0.3618    0.3541    0.6821
Li    Li910        0.5197    0.3235    0.6479
Li    Li911        0.2667    0.3653    0.5977
Li    Li912        0.2701    0.4019    0.6982
Li    Li913        0.4985    0.3310    0.9353
Li    Li914        0.3750    0.4364    0.0715
Li    Li915        0.3649    0.4659    0.1861
Li    Li916        0.2546    0.4623    0.0620
Li    Li917        0.3784    0.4153    0.1825
Li    Li918        0.5065    0.4389    0.4346
Li    Li919        0.2595    0.4662    0.3158
Li    Li920        0.4661    0.3981    0.3091
Li    Li921        0.3724    0.4279    0.5571
Li    Li922        0.3555    0.4493    0.6912
Li    Li923        0.2596    0.4857    0.7023
Li    Li924        0.4931    0.4089    0.5667
Li    Li925        0.2605    0.4708    0.8286
Li    Li926        0.2520    0.4888    0.9388
Li    Li927        0.3429    0.5318    0.0780
Li    Li928        0.5146    0.5334    0.1607
Li    Li929        0.2311    0.5668    0.0802
Li    Li930        0.4940    0.5210    0.2855
Li    Li931        0.2602    0.5890    0.6789
Li    Li932        0.5036    0.5377    0.9277
Li    Li933        0.4030    0.6764    0.1803
Li    Li934        0.2568    0.6828    0.2087
Li    Li935        0.3959    0.6497    0.3180
Li    Li936        0.3543    0.6445    0.4373
Li    Li937        0.2489    0.6622    0.3157
Li    Li938        0.2489    0.6860    0.4419
Li    Li939        0.5242    0.6045    0.2952
Li    Li940        0.3801    0.6387    0.5741
Li    Li941        0.2615    0.6883    0.6860
Li    Li942        0.3899    0.6431    0.8070
Li    Li943        0.3684    0.6644    0.9309
Li    Li944        0.4904    0.6365    0.9274
Li    Li945        0.2585    0.6779    0.8395
Li    Li946        0.2453    0.6795    0.9607
Li    Li947        0.3558    0.6121    0.9618
Li    Li948        0.2646    0.7971    0.1877
Li    Li949        0.3925    0.7157    0.2021
Li    Li950        0.3685    0.7288    0.3291
Li    Li951        0.3873    0.7554    0.4440
Li    Li952        0.5253    0.7396    0.4171
Li    Li953        0.2546    0.7734    0.2978
Li    Li954        0.4879    0.7118    0.3011
Li    Li955        0.2344    0.7589    0.5743
Li    Li956        0.3714    0.7925    0.5528
Li    Li957        0.2809    0.7575    0.8219
Li    Li958        0.3553    0.7901    0.8115
Li    Li959        0.3927    0.7116    0.9262
Li    Li960        0.3631    0.8674    0.1648
Li    Li961        0.2627    0.8644    0.0581
Li    Li962        0.4859    0.8180    0.0548
Li    Li963        0.3623    0.8905    0.0483
Li    Li964        0.3897    0.8626    0.4355
Li    Li965        0.2171    0.8680    0.3366
Li    Li966        0.3991    0.8004    0.4361
Li    Li967        0.3659    0.8935    0.5665
Li    Li968        0.5103    0.8464    0.9222
Li    Li969        0.2561    0.8590    0.8075
Li    Li970        0.4038    0.8789    0.7907
Li    Li971        0.3567    0.9410    0.0672
Li    Li972        0.2575    0.9593    0.0690
Li    Li973        0.2355    0.9867    0.1969
Li    Li974        0.3915    0.9392    0.3217
Li    Li975        0.3667    0.9590    0.4377
Li    Li976        0.2586    0.9786    0.3109
Li    Li977        0.4889    0.9090    0.2989
Li    Li978        0.3557    0.9824    0.2738
Li    Li979        0.4906    0.9057    0.5650
Li    Li980        0.4013    0.9846    0.7901
Li    Li981        0.5084    0.0727    0.0771
Li    Li982        0.4693    0.0819    0.2059
Li    Li983        0.6242    0.1021    0.0598
Li    Li984        0.6374    0.0457    0.3141
Li    Li985        0.5178    0.0720    0.3087
Li    Li986        0.7377    0.0132    0.2995
Li    Li987        0.4997    0.0946    0.5661
Li    Li988        0.5973    0.0493    0.9398
Li    Li989        0.6409    0.0182    0.9514
Li    Li990        0.6264    0.1346    0.0588
Li    Li991        0.6093    0.1437    0.1947
Li    Li992        0.7460    0.1087    0.0692
Li    Li993        0.8052    0.1297    0.9279
Li    Li994        0.7367    0.1131    0.8182
Li    Li995        0.6311    0.1115    0.9398
Li    Li996        0.6313    0.2329    0.0730
Li    Li997        0.5207    0.2538    0.0503
Li    Li998        0.5090    0.2648    0.3077
Li    Li999        0.5245    0.2599    0.8200
Li    Li1000        0.7449    0.2161    0.8032
Li    Li1001        0.5002    0.3828    0.1952
Li    Li1002        0.7538    0.3155    0.2988
Li    Li1003        0.5169    0.3913    0.6819
Li    Li1004        0.6215    0.3538    0.9351
Li    Li1005        0.7351    0.3471    0.9405
Li    Li1006        0.5098    0.3618    0.8308
Li    Li1007        0.6104    0.3119    0.9561
Li    Li1008        0.6106    0.4681    0.1950
Li    Li1009        0.5119    0.4903    0.1988
Li    Li1010        0.6198    0.4623    0.4363
Li    Li1011        0.5248    0.4602    0.3048
Li    Li1012        0.5061    0.4876    0.4464
Li    Li1013        0.7409    0.4170    0.3190
Li    Li1014        0.5067    0.4659    0.5603
Li    Li1015        0.6366    0.4213    0.7033
Li    Li1016        0.6364    0.4371    0.8117
Li    Li1017        0.6130    0.4712    0.9372
Li    Li1018        0.5113    0.4942    0.9393
Li    Li1019        0.5910    0.5056    0.8212
Li    Li1020        0.5088    0.5859    0.1838
Li    Li1021        0.5233    0.5520    0.3101
Li    Li1022        0.6336    0.5884    0.3047
Li    Li1023        0.6105    0.5039    0.4537
Li    Li1024        0.6005    0.5378    0.5579
Li    Li1025        0.6512    0.5071    0.6910
Li    Li1026        0.6414    0.5435    0.8130
Li    Li1027        0.6047    0.5574    0.9313
Li    Li1028        0.5104    0.5707    0.8112
Li    Li1029        0.7295    0.4911    0.8505
Li    Li1030        0.6259    0.5214    0.9354
Li    Li1031        0.6350    0.6374    0.0657
Li    Li1032        0.7452    0.6371    0.1787
Li    Li1033        0.6300    0.6922    0.0537
Li    Li1034        0.6459    0.6515    0.3146
Li    Li1035        0.5959    0.6966    0.3196
Li    Li1036        0.7426    0.6333    0.9324
Li    Li1037        0.5123    0.6766    0.9324
Li    Li1038        0.7347    0.6100    0.8046
Li    Li1039        0.6531    0.7435    0.0664
Li    Li1040        0.7261    0.7318    0.0444
Li    Li1041        0.6037    0.7564    0.4395
Li    Li1042        0.4977    0.7537    0.3175
Li    Li1043        0.4682    0.7880    0.4572
Li    Li1044        0.6159    0.8715    0.1746
Li    Li1045        0.5243    0.8526    0.0617
Li    Li1046        0.6189    0.8935    0.0610
Li    Li1047        0.6447    0.8432    0.3156
Li    Li1048        0.4951    0.8809    0.4677
Li    Li1049        0.6205    0.8903    0.3171
Li    Li1050        0.7466    0.8394    0.9372
Li    Li1051        0.5117    0.9920    0.1942
Li    Li1052        0.6191    0.9901    0.3017
Li    Li1053        0.6101    0.9762    0.9421
Li    Li1054        0.7308    0.9203    0.9551
Li    Li1055        0.5148    0.9914    0.9421
Li    Li1056        0.7377    0.0654    0.0742
Li    Li1057        0.8799    0.0363    0.3169
Li    Li1058        0.9995    0.0357    0.4365
Li    Li1059        0.0273    0.0151    0.2981
Li    Li1060        0.8707    0.0785    0.2932
Li    Li1061        0.8835    0.0812    0.5493
Li    Li1062        0.9036    0.0505    0.8034
Li    Li1063        0.9959    0.0289    0.9384
Li    Li1064        0.7544    0.0698    0.8278
Li    Li1065        0.0131    0.0147    0.8068
Li    Li1066        0.8609    0.1568    0.0711
Li    Li1067        0.8647    0.1556    0.1934
Li    Li1068        0.9868    0.1094    0.0633
Li    Li1069        0.8646    0.1457    0.3246
Li    Li1070        0.9847    0.1287    0.4266
Li    Li1071        0.9951    0.1091    0.5678
Li    Li1072        0.8844    0.1379    0.8174
Li    Li1073        0.8549    0.1960    0.8141
Li    Li1074        0.8658    0.2652    0.1761
Li    Li1075        0.9886    0.2292    0.1720
Li    Li1076        0.7439    0.2604    0.0717
Li    Li1077        0.8858    0.2305    0.1811
Li    Li1078        0.8819    0.2429    0.3128
Li    Li1079        0.9128    0.2679    0.4408
Li    Li1080        0.9828    0.2548    0.4429
Li    Li1081        0.9006    0.2410    0.5676
Li    Li1082        0.8640    0.2604    0.6823
Li    Li1083        0.7574    0.2573    0.5746
Li    Li1084        0.7532    0.2843    0.6700
Li    Li1085        0.8924    0.2041    0.7057
Li    Li1086        0.8468    0.2541    0.9301
Li    Li1087        0.8694    0.2912    0.7928
Li    Li1088        0.8693    0.3501    0.0733
Li    Li1089        0.9886    0.3424    0.1796
Li    Li1090        0.8813    0.3165    0.2000
Li    Li1091        0.8799    0.3284    0.3019
Li    Li1092        0.8839    0.3610    0.4243
Li    Li1093        0.7354    0.3605    0.3211
Li    Li1094        0.7801    0.3989    0.4359
Li    Li1095        0.0330    0.3398    0.6981
Li    Li1096        0.7584    0.3838    0.6954
Li    Li1097        0.8939    0.3393    0.8357
Li    Li1098        0.8764    0.3639    0.9307
Li    Li1099        0.9948    0.3354    0.9296
Li    Li1100        0.7558    0.3978    0.9501
Li    Li1101        0.8816    0.4727    0.1856
Li    Li1102        0.7332    0.4830    0.2126
Li    Li1103        0.8776    0.4348    0.3198
Li    Li1104        0.7529    0.4516    0.3163
Li    Li1105        0.7573    0.4849    0.9391
Li    Li1106        0.8534    0.4109    0.9539
Li    Li1107        0.8537    0.6565    0.1779
Li    Li1108        0.7623    0.6859    0.2084
Li    Li1109        0.9673    0.5930    0.0637
Li    Li1110        0.9918    0.6104    0.3062
Li    Li1111        0.7603    0.6856    0.7039
Li    Li1112        0.8767    0.6451    0.8017
Li    Li1113        0.9973    0.6174    0.8261
Li    Li1114        0.8763    0.6083    0.9402
Li    Li1115        0.0195    0.7408    0.1705
Li    Li1116        0.7500    0.7865    0.1955
Li    Li1117        0.9729    0.6988    0.0698
Li    Li1118        0.8915    0.7209    0.1862
Li    Li1119        0.9774    0.7490    0.4339
Li    Li1120        0.9984    0.7110    0.3012
Li    Li1121        0.8752    0.7749    0.9532
Li    Li1122        0.7551    0.7856    0.9533
Li    Li1123        0.8936    0.8279    0.1757
Li    Li1124        0.0196    0.8341    0.4206
Li    Li1125        0.0131    0.8154    0.2997
Li    Li1126        0.9852    0.8420    0.9359
Li    Li1127        0.8811    0.9427    0.3085
Li    Li1128        0.7791    0.9838    0.3045
Li    Li1129        0.8611    0.9854    0.8003
Li    Li1130        0.8730    0.9106    0.9416
Li    Li1131        0.0789    0.0539    0.4912
Li    Li1132        0.0453    0.1000    0.3862
Li    Li1133        0.1680    0.9972    0.3875
Li    Li1134        0.0673    0.1066    0.3652
Li    Li1135        0.0819    0.0778    0.8448
Li    Li1136        0.2219    0.1507    0.2557
Li    Li1137        0.0234    0.1887    0.1286
Li    Li1138        0.0931    0.1529    0.4925
Li    Li1139        0.0540    0.1614    0.2673
Li    Li1140        0.2018    0.1039    0.3569
Li    Li1141        0.1639    0.0966    0.3874
Li    Li1142        0.0818    0.2032    0.3565
Li    Li1143        0.0474    0.1580    0.5200
Li    Li1144        0.2052    0.1093    0.6086
Li    Li1145        0.0830    0.1501    0.9890
Li    Li1146        0.0482    0.1409    0.7594
Li    Li1147        0.2019    0.1461    0.9841
Li    Li1148        0.0333    0.2594    0.2772
Li    Li1149        0.1871    0.2111    0.3634
Li    Li1150        0.1648    0.2521    0.5169
Li    Li1151        0.0256    0.2513    0.5145
Li    Li1152        0.0552    0.2879    0.6398
Li    Li1153        0.1471    0.2106    0.6278
Li    Li1154        0.0793    0.2804    0.6094
Li    Li1155        0.1955    0.1975    0.8560
Li    Li1156        0.1311    0.1963    0.8875
Li    Li1157        0.0475    0.4045    0.1406
Li    Li1158        0.1515    0.3520    0.2457
Li    Li1159        0.0340    0.3512    0.2539
Li    Li1160        0.1738    0.3424    0.7658
Li    Li1161        0.2032    0.3080    0.8588
Li    Li1162        0.0776    0.4036    0.8612
Li    Li1163        0.2204    0.4061    0.1198
Li    Li1164        0.0393    0.4954    0.1335
Li    Li1165        0.0832    0.5003    0.1091
Li    Li1166        0.1755    0.4343    0.2307
Li    Li1167        0.2099    0.4449    0.7324
Li    Li1168        0.1730    0.3975    0.6396
Li    Li1169        0.2070    0.4439    0.9834
Li    Li1170        0.1910    0.4129    0.8700
Li    Li1171        0.0751    0.5953    0.1050
Li    Li1172        0.0459    0.5616    0.2714
Li    Li1173        0.0895    0.5905    0.3688
Li    Li1174        0.1997    0.5063    0.6123
Li    Li1175        0.1730    0.5127    0.6475
Li    Li1176        0.1674    0.5394    0.7631
Li    Li1177        0.1787    0.5174    0.8725
Li    Li1178        0.0884    0.6520    0.2592
Li    Li1179        0.1551    0.6585    0.0130
Li    Li1180        0.2098    0.6056    0.1082
Li    Li1181        0.0434    0.6934    0.1417
Li    Li1182        0.1656    0.6070    0.1444
Li    Li1183        0.0809    0.6584    0.4838
Li    Li1184        0.2035    0.6539    0.4854
Li    Li1185        0.1970    0.6013    0.3729
Li    Li1186        0.1672    0.5947    0.3904
Li    Li1187        0.2153    0.6374    0.5270
Li    Li1188        0.0752    0.6612    0.9845
Li    Li1189        0.2220    0.6510    0.0006
Li    Li1190        0.1722    0.7428    0.0143
Li    Li1191        0.0401    0.7562    0.2641
Li    Li1192        0.2196    0.6931    0.3735
Li    Li1193        0.0855    0.8053    0.3501
Li    Li1194        0.0674    0.8928    0.1251
Li    Li1195        0.0860    0.9087    0.1140
Li    Li1196        0.0376    0.8401    0.2591
Li    Li1197        0.1612    0.8009    0.3930
Li    Li1198        0.0805    0.8560    0.7366
Li    Li1199        0.1897    0.8045    0.6289
Li    Li1200        0.0475    0.8553    0.7721
Li    Li1201        0.0405    0.9549    0.0215
Li    Li1202        0.1632    0.9001    0.1175
Li    Li1203        0.0728    0.9470    0.4856
Li    Li1204        0.2292    0.9138    0.3769
Li    Li1205        0.1641    0.9081    0.3889
Li    Li1206        0.1500    0.9399    0.5114
Li    Li1207        0.0829    0.9925    0.6144
Li    Li1208        0.0791    0.9578    0.9819
Li    Li1209        0.0480    0.9464    0.7665
Li    Li1210        0.2179    0.8975    0.8528
Li    Li1211        0.1690    0.8969    0.8864
Li    Li1212        0.3319    0.0437    0.4842
Li    Li1213        0.4614    0.0513    0.4802
Li    Li1214        0.4660    0.0427    0.9925
Li    Li1215        0.4239    0.0147    0.8949
Li    Li1216        0.4168    0.1443    0.0128
Li    Li1217        0.2975    0.1519    0.0169
Li    Li1218        0.3051    0.1947    0.1439
Li    Li1219        0.3306    0.1854    0.1093
Li    Li1220        0.3293    0.1612    0.7329
Li    Li1221        0.4128    0.1454    0.7612
Li    Li1222        0.4571    0.1408    0.9776
Li    Li1223        0.3198    0.2066    0.8792
Li    Li1224        0.4197    0.1128    0.8890
Li    Li1225        0.3203    0.1987    0.8536
Li    Li1226        0.4141    0.2438    0.0182
Li    Li1227        0.3065    0.2590    0.0042
Li    Li1228        0.4717    0.1922    0.1233
Li    Li1229        0.4153    0.1994    0.1446
Li    Li1230        0.3462    0.3076    0.1215
Li    Li1231        0.4371    0.2380    0.2605
Li    Li1232        0.4531    0.2550    0.7341
Li    Li1233        0.3421    0.2541    0.0072
Li    Li1234        0.2929    0.2562    0.7690
Li    Li1235        0.3842    0.1968    0.8923
Li    Li1236        0.3371    0.3477    0.2290
Li    Li1237        0.3005    0.3495    0.0096
Li    Li1238        0.4910    0.3521    0.2319
Li    Li1239        0.4593    0.3034    0.1266
Li    Li1240        0.2726    0.4027    0.1536
Li    Li1241        0.4167    0.3048    0.1394
Li    Li1242        0.3577    0.4015    0.1275
Li    Li1243        0.4116    0.3573    0.2700
Li    Li1244        0.4237    0.3531    0.5156
Li    Li1245        0.3010    0.3479    0.5162
Li    Li1246        0.4575    0.3398    0.7340
Li    Li1247        0.4580    0.3094    0.6117
Li    Li1248        0.3066    0.4068    0.6392
Li    Li1249        0.2835    0.3402    0.7637
Li    Li1250        0.4037    0.3096    0.8733
Li    Li1251        0.4565    0.3992    0.1075
Li    Li1252        0.3323    0.5010    0.1128
Li    Li1253        0.4248    0.4357    0.2657
Li    Li1254        0.4641    0.4477    0.5119
Li    Li1255        0.4745    0.3968    0.8393
Li    Li1256        0.4410    0.5391    0.2458
Li    Li1257        0.4657    0.5110    0.1203
Li    Li1258        0.4411    0.5174    0.1394
Li    Li1259        0.2859    0.5964    0.3839
Li    Li1260        0.4159    0.5055    0.3874
Li    Li1261        0.3319    0.5632    0.9871
Li    Li1262        0.3005    0.5960    0.8841
Li    Li1263        0.3379    0.6603    0.2400
Li    Li1264        0.3113    0.6894    0.1443
Li    Li1265        0.3181    0.6872    0.1114
Li    Li1266        0.3491    0.6467    0.4682
Li    Li1267        0.4536    0.6452    0.4865
Li    Li1268        0.2896    0.7061    0.3824
Li    Li1269        0.3167    0.6549    0.7491
Li    Li1270        0.2911    0.6610    0.5188
Li    Li1271        0.4589    0.6053    0.6053
Li    Li1272        0.2899    0.6516    0.7667
Li    Li1273        0.4514    0.6592    0.9949
Li    Li1274        0.4721    0.5940    0.8757
Li    Li1275        0.3241    0.7443    0.2325
Li    Li1276        0.4241    0.7478    0.2646
Li    Li1277        0.2841    0.7498    0.2737
Li    Li1278        0.2902    0.7868    0.3919
Li    Li1279        0.2976    0.7585    0.5098
Li    Li1280        0.3303    0.7935    0.8546
Li    Li1281        0.2773    0.8399    0.0207
Li    Li1282        0.4323    0.8092    0.1325
Li    Li1283        0.4625    0.8004    0.3573
Li    Li1284        0.3388    0.8971    0.5993
Li    Li1285        0.2699    0.8588    0.7490
Li    Li1286        0.4501    0.7940    0.8561
Li    Li1287        0.4248    0.8117    0.8943
Li    Li1288        0.3313    0.9438    0.2298
Li    Li1289        0.4191    0.9511    0.0168
Li    Li1290        0.3024    0.9617    0.0135
Li    Li1291        0.4644    0.9038    0.1203
Li    Li1292        0.4141    0.9551    0.2553
Li    Li1293        0.4427    0.9005    0.3605
Li    Li1294        0.2941    0.9907    0.3954
Li    Li1295        0.3324    0.9875    0.3548
Li    Li1296        0.4032    0.9455    0.5016
Li    Li1297        0.2849    0.9513    0.7681
Li    Li1298        0.4786    0.9500    0.0096
Li    Li1299        0.2934    0.9945    0.8936
Li    Li1300        0.5200    0.0541    0.9911
Li    Li1301        0.5317    0.0906    0.1322
Li    Li1302        0.5786    0.0474    0.4786
Li    Li1303        0.5411    0.0574    0.5232
Li    Li1304        0.5692    0.0431    0.9780
Li    Li1305        0.7078    0.0938    0.1035
Li    Li1306        0.6375    0.1026    0.1400
Li    Li1307        0.7007    0.1512    0.9890
Li    Li1308        0.5834    0.1889    0.8573
Li    Li1309        0.7077    0.2474    0.9821
Li    Li1310        0.7151    0.2012    0.8762
Li    Li1311        0.5369    0.3444    0.2605
Li    Li1312        0.7137    0.3037    0.6234
Li    Li1313        0.5417    0.4007    0.6344
Li    Li1314        0.6963    0.3481    0.9809
Li    Li1315        0.6661    0.3043    0.8872
Li    Li1316        0.5853    0.3899    0.8688
Li    Li1317        0.6466    0.4444    0.9987
Li    Li1318        0.5323    0.4851    0.3854
Li    Li1319        0.5867    0.4994    0.3572
Li    Li1320        0.7039    0.4442    0.7339
Li    Li1321        0.7167    0.3951    0.6200
Li    Li1322        0.5866    0.4960    0.6108
Li    Li1323        0.6009    0.4473    0.9887
Li    Li1324        0.7104    0.4015    0.8570
Li    Li1325        0.5802    0.5620    0.2384
Li    Li1326        0.5375    0.6100    0.3679
Li    Li1327        0.6669    0.4960    0.3935
Li    Li1328        0.5996    0.6082    0.3469
Li    Li1329        0.5826    0.6011    0.6057
Li    Li1330        0.5802    0.5675    0.9834
Li    Li1331        0.6661    0.5477    0.7592
Li    Li1332        0.7093    0.5097    0.8618
Li    Li1333        0.5498    0.5861    0.9021
Li    Li1334        0.5847    0.6524    0.2416
Li    Li1335        0.5435    0.6591    0.0169
Li    Li1336        0.5484    0.6656    0.2492
Li    Li1337        0.7034    0.6374    0.7343
Li    Li1338        0.5820    0.6492    0.9780
Li    Li1339        0.7160    0.6495    0.9775
Li    Li1340        0.5451    0.8032    0.1410
Li    Li1341        0.6691    0.7454    0.2569
Li    Li1342        0.6983    0.6988    0.3607
Li    Li1343        0.5164    0.7955    0.3746
Li    Li1344        0.5782    0.8034    0.3596
Li    Li1345        0.5552    0.7597    0.5049
Li    Li1346        0.7166    0.7427    0.0008
Li    Li1347        0.6732    0.8517    0.0142
Li    Li1348        0.7104    0.7984    0.0935
Li    Li1349        0.5508    0.8852    0.1330
Li    Li1350        0.6472    0.7984    0.1398
Li    Li1351        0.6662    0.8074    0.4013
Li    Li1352        0.5783    0.8616    0.9845
Li    Li1353        0.7066    0.8435    0.9889
Li    Li1354        0.6611    0.8940    0.1493
Li    Li1355        0.6757    0.8953    0.3994
Li    Li1356        0.7949    0.0579    0.0189
Li    Li1357        0.9310    0.0058    0.3745
Li    Li1358        0.9549    0.0042    0.5994
Li    Li1359        0.9354    0.0158    0.6202
Li    Li1360        0.9150    0.0469    0.7757
Li    Li1361        0.8056    0.0601    0.7514
Li    Li1362        0.9582    0.0428    0.9832
Li    Li1363        0.9200    0.0088    0.8891
Li    Li1364        0.8393    0.1549    0.2431
Li    Li1365        0.8218    0.1620    0.9910
Li    Li1366        0.9503    0.1478    0.2369
Li    Li1367        0.7850    0.1937    0.1493
Li    Li1368        0.9196    0.1000    0.1379
Li    Li1369        0.9839    0.0950    0.3648
Li    Li1370        0.8249    0.2526    0.2406
Li    Li1371        0.7989    0.2449    0.0149
Li    Li1372        0.9479    0.2557    0.2345
Li    Li1373        0.7983    0.2860    0.1432
Li    Li1374        0.9213    0.2006    0.1329
Li    Li1375        0.9236    0.2539    0.2718
Li    Li1376        0.7996    0.2659    0.2645
Li    Li1377        0.9439    0.2097    0.3733
Li    Li1378        0.7950    0.2933    0.3942
Li    Li1379        0.8357    0.2594    0.7367
Li    Li1380        0.7869    0.3075    0.6540
Li    Li1381        0.9129    0.2112    0.6284
Li    Li1382        0.7940    0.2569    0.7661
Li    Li1383        0.7825    0.2985    0.9038
Li    Li1384        0.8378    0.3566    0.2398
Li    Li1385        0.9292    0.3404    0.9914
Li    Li1386        0.9252    0.3000    0.1388
Li    Li1387        0.8357    0.3567    0.4864
Li    Li1388        0.7842    0.3533    0.2685
Li    Li1389        0.9599    0.3090    0.3598
Li    Li1390        0.8293    0.3431    0.7399
Li    Li1391        0.7938    0.3659    0.5166
Li    Li1392        0.9650    0.3159    0.6012
Li    Li1393        0.7904    0.4065    0.6291
Li    Li1394        0.9210    0.2994    0.6318
Li    Li1395        0.7982    0.3469    0.7593
Li    Li1396        0.9188    0.3118    0.8953
Li    Li1397        0.8059    0.4636    0.2343
Li    Li1398        0.9644    0.4429    0.2406
Li    Li1399        0.7991    0.4511    0.2678
Li    Li1400        0.8274    0.4508    0.9836
Li    Li1401        0.7927    0.4827    0.9012
Li    Li1402        0.8066    0.5103    0.8773
Li    Li1403        0.9351    0.6354    0.9848
Li    Li1404        0.7856    0.6911    0.1425
Li    Li1405        0.9749    0.5983    0.3722
Li    Li1406        0.9389    0.6321    0.7454
Li    Li1407        0.7981    0.6611    0.7558
Li    Li1408        0.9584    0.6369    0.9770
Li    Li1409        0.8036    0.6923    0.8882
Li    Li1410        0.9181    0.5987    0.8882
Li    Li1411        0.8213    0.6874    0.8510
Li    Li1412        0.9161    0.7443    0.0161
Li    Li1413        0.7896    0.7548    0.0185
Li    Li1414        0.9527    0.7525    0.2301
Li    Li1415        0.9541    0.7064    0.1116
Li    Li1416        0.9636    0.7539    0.4733
Li    Li1417        0.8261    0.7548    0.9843
Li    Li1418        0.9531    0.7398    0.9804
Li    Li1419        0.7881    0.8544    0.0041
Li    Li1420        0.9659    0.8497    0.2426
Li    Li1421        0.7949    0.8892    0.8917
Li    Li1422        0.8254    0.9563    0.7367
Li    Li1423        0.9018    0.9116    0.8709
Li    Li1424        0.9830    0.0134    0.3915
Li    Li1425        0.2379    0.0920    0.3493
Li    Li1426        0.1395    0.0125    0.3410
Li    Li1427        0.1105    0.0868    0.3986
Li    Li1428        0.1236    0.0478    0.4822
Li    Li1429        0.9762    0.0134    0.6439
Li    Li1430        0.1035    0.0156    0.5925
Li    Li1431        0.1316    0.0920    0.8948
Li    Li1432        0.1153    0.0631    0.7863
Li    Li1433        0.0164    0.0361    0.7845
Li    Li1434        0.9820    0.1170    0.4033
Li    Li1435        0.1116    0.1811    0.3934
Li    Li1436        0.1056    0.1676    0.2799
Li    Li1437        0.1434    0.1479    0.4984
Li    Li1438        0.2670    0.1660    0.4760
Li    Li1439        0.1088    0.1798    0.6387
Li    Li1440        0.2752    0.1612    0.7081
Li    Li1441        0.0146    0.1414    0.5238
Li    Li1442        0.2629    0.1876    0.8317
Li    Li1443        0.1410    0.1130    0.8421
Li    Li1444        0.1388    0.1258    0.9800
Li    Li1445        0.0011    0.2126    0.1495
Li    Li1446        0.2452    0.2903    0.1127
Li    Li1447        0.2588    0.2711    0.2198
Li    Li1448        0.2422    0.2688    0.4746
Li    Li1449        0.0003    0.2330    0.2738
Li    Li1450        0.1227    0.2029    0.5934
Li    Li1451        0.1308    0.2909    0.6535
Li    Li1452        0.1155    0.2450    0.7155
Li    Li1453        0.2528    0.2887    0.8501
Li    Li1454        0.1493    0.2169    0.8481
Li    Li1455        0.1065    0.2833    0.9065
Li    Li1456        0.1170    0.2627    0.7698
Li    Li1457        0.2661    0.2645    0.9661
Li    Li1458        0.9833    0.3101    0.1673
Li    Li1459        0.2617    0.3842    0.1171
Li    Li1460        0.1387    0.3179    0.1069
Li    Li1461        0.1395    0.3893    0.1502
Li    Li1462        0.1064    0.3617    0.0367
Li    Li1463        0.1691    0.3402    0.2047
Li    Li1464        0.9856    0.3291    0.0286
Li    Li1465        0.0001    0.3147    0.3967
Li    Li1466        0.0085    0.3075    0.6577
Li    Li1467        0.1070    0.3147    0.6030
Li    Li1468        0.1204    0.3812    0.6447
Li    Li1469        0.2717    0.3795    0.8552
Li    Li1470        0.1393    0.3120    0.8441
Li    Li1471        0.1104    0.3834    0.8952
Li    Li1472        0.1403    0.3381    0.9675
Li    Li1473        0.9928    0.4191    0.1520
Li    Li1474        0.2472    0.4864    0.0944
Li    Li1475        0.1443    0.4170    0.1098
Li    Li1476        0.1102    0.4654    0.0430
Li    Li1477        0.1407    0.4254    0.2229
Li    Li1478        0.0148    0.4136    0.6527
Li    Li1479        0.1051    0.4035    0.6116
Li    Li1480        0.1139    0.4860    0.6498
Li    Li1481        0.1478    0.4370    0.7187
Li    Li1482        0.2616    0.4596    0.7053
Li    Li1483        0.0113    0.4169    0.9003
Li    Li1484        0.1113    0.4160    0.8441
Li    Li1485        0.1252    0.4847    0.9090
Li    Li1486        0.2735    0.4624    0.9688
Li    Li1487        0.1376    0.5783    0.1565
Li    Li1488        0.2658    0.5924    0.3351
Li    Li1489        0.1378    0.5926    0.3883
Li    Li1490        0.1248    0.5114    0.6076
Li    Li1491        0.1188    0.5797    0.6526
Li    Li1492        0.1416    0.5510    0.5359
Li    Li1493        0.1326    0.5463    0.7076
Li    Li1494        0.2317    0.5552    0.7172
Li    Li1495        0.2472    0.5872    0.8460
Li    Li1496        0.2734    0.5677    0.9835
Li    Li1497        0.2466    0.6935    0.0915
Li    Li1498        0.1236    0.6120    0.0936
Li    Li1499        0.1265    0.6575    0.0303
Li    Li1500        0.2535    0.6655    0.2284
Li    Li1501        0.9934    0.6317    0.0336
Li    Li1502        0.0253    0.6068    0.4064
Li    Li1503        0.1255    0.6067    0.3443
Li    Li1504        0.1307    0.6870    0.3964
Li    Li1505        0.1176    0.6468    0.4617
Li    Li1506        0.2551    0.6569    0.4628
Li    Li1507        0.2407    0.6875    0.5990
Li    Li1508        0.1181    0.6629    0.5373
Li    Li1509        0.2490    0.6570    0.7124
Li    Li1510        0.9852    0.6169    0.8968
Li    Li1511        0.1086    0.6130    0.8437
Li    Li1512        0.1179    0.6426    0.9633
Li    Li1513        0.2530    0.6581    0.9674
Li    Li1514        0.0061    0.6455    0.7855
Li    Li1515        0.9979    0.7110    0.1634
Li    Li1516        0.2233    0.7831    0.0977
Li    Li1517        0.1247    0.7097    0.0992
Li    Li1518        0.9996    0.7068    0.4085
Li    Li1519        0.2497    0.7898    0.3282
Li    Li1520        0.1233    0.7939    0.4083
Li    Li1521        0.9982    0.7254    0.2724
Li    Li1522        0.2174    0.7987    0.5931
Li    Li1523        0.2627    0.7716    0.9822
Li    Li1524        0.9941    0.8134    0.1576
Li    Li1525        0.2662    0.8911    0.0876
Li    Li1526        0.1314    0.8066    0.0863
Li    Li1527        0.1127    0.8819    0.1382
Li    Li1528        0.1127    0.8597    0.0398
Li    Li1529        0.2341    0.8550    0.2109
Li    Li1530        0.0073    0.8094    0.4110
Li    Li1531        0.1243    0.8096    0.3421
Li    Li1532        0.1358    0.8915    0.4090
Li    Li1533        0.2589    0.8775    0.7227
Li    Li1534        0.2492    0.8907    0.8440
Li    Li1535        0.1248    0.8888    0.8900
Li    Li1536        0.0988    0.8577    0.7660
Li    Li1537        0.1030    0.8350    0.9740
Li    Li1538        0.2513    0.8685    0.9721
Li    Li1539        0.0158    0.8358    0.7810
Li    Li1540        0.2432    0.9881    0.0989
Li    Li1541        0.1558    0.9172    0.0861
Li    Li1542        0.2583    0.9745    0.2285
Li    Li1543        0.2410    0.9890    0.3475
Li    Li1544        0.1300    0.9051    0.3457
Li    Li1545        0.1165    0.9815    0.3991
Li    Li1546        0.1229    0.9607    0.2863
Li    Li1547        0.1424    0.9342    0.4706
Li    Li1548        0.9694    0.9070    0.6404
Li    Li1549        0.1457    0.9064    0.6085
Li    Li1550        0.1031    0.9766    0.6478
Li    Li1551        0.2423    0.9569    0.7276
Li    Li1552        0.9906    0.9124    0.9126
Li    Li1553        0.1346    0.9099    0.8412
Li    Li1554        0.1452    0.9674    0.7822
Li    Li1555        0.0901    0.9424    0.9671
Li    Li1556        0.2472    0.9493    0.9717
Li    Li1557        0.2545    0.0157    0.1528
Li    Li1558        0.4907    0.0535    0.2324
Li    Li1559        0.2521    0.0094    0.4004
Li    Li1560        0.5157    0.0801    0.3592
Li    Li1561        0.3409    0.0845    0.4050
Li    Li1562        0.3853    0.0451    0.4572
Li    Li1563        0.3547    0.0683    0.5199
Li    Li1564        0.3519    0.0156    0.8443
Li    Li1565        0.4117    0.0402    0.9644
Li    Li1566        0.4989    0.0614    0.9764
Li    Li1567        0.4013    0.1578    0.0321
Li    Li1568        0.3783    0.1353    0.2287
Li    Li1569        0.2221    0.1241    0.0205
Li    Li1570        0.3629    0.1712    0.2742
Li    Li1571        0.2339    0.1312    0.2685
Li    Li1572        0.3460    0.1295    0.7195
Li    Li1573        0.4010    0.1119    0.8469
Li    Li1574        0.3531    0.1815    0.9013
Li    Li1575        0.3612    0.1665    0.7730
Li    Li1576        0.4995    0.1579    0.9777
Li    Li1577        0.4967    0.2938    0.0980
Li    Li1578        0.3795    0.2118    0.1016
Li    Li1579        0.3429    0.2656    0.0366
Li    Li1580        0.3659    0.2367    0.2234
Li    Li1581        0.2427    0.2417    0.0333
Li    Li1582        0.3616    0.2166    0.3419
Li    Li1583        0.2357    0.2385    0.2622
Li    Li1584        0.2392    0.2117    0.6537
Li    Li1585        0.3824    0.2335    0.7289
Li    Li1586        0.2279    0.2367    0.5247
Li    Li1587        0.4987    0.2942    0.8426
Li    Li1588        0.3743    0.2225    0.8524
Li    Li1589        0.3505    0.2764    0.8965
Li    Li1590        0.4851    0.3879    0.1004
Li    Li1591        0.3995    0.3885    0.1633
Li    Li1592        0.3749    0.3597    0.0243
Li    Li1593        0.2702    0.3402    0.0242
Li    Li1594        0.4954    0.3838    0.3464
Li    Li1595        0.3745    0.3604    0.2655
Li    Li1596        0.3602    0.3394    0.4732
Li    Li1597        0.5293    0.3764    0.6075
Li    Li1598        0.3917    0.3170    0.8476
Li    Li1599        0.3730    0.3346    0.9728
Li    Li1600        0.4976    0.3561    0.9623
Li    Li1601        0.4904    0.4920    0.0873
Li    Li1602        0.3606    0.4136    0.0928
Li    Li1603        0.3689    0.4867    0.1507
Li    Li1604        0.3613    0.4358    0.2247
Li    Li1605        0.2354    0.4333    0.0184
Li    Li1606        0.5158    0.4802    0.3523
Li    Li1607        0.3896    0.4599    0.2801
Li    Li1608        0.4825    0.4612    0.4646
Li    Li1609        0.2583    0.4383    0.2662
Li    Li1610        0.2557    0.4108    0.6578
Li    Li1611        0.3608    0.4693    0.5245
Li    Li1612        0.4003    0.4244    0.7294
Li    Li1613        0.3788    0.4540    0.7770
Li    Li1614        0.3435    0.5757    0.0133
Li    Li1615        0.3948    0.5420    0.2164
Li    Li1616        0.5383    0.5669    0.2043
Li    Li1617        0.2374    0.5339    0.0230
Li    Li1618        0.3758    0.5072    0.3516
Li    Li1619        0.3556    0.5885    0.4024
Li    Li1620        0.2555    0.5111    0.6501
Li    Li1621        0.4989    0.5791    0.8518
Li    Li1622        0.3943    0.5801    0.8994
Li    Li1623        0.2529    0.5422    0.7779
Li    Li1624        0.2478    0.6152    0.1510
Li    Li1625        0.3666    0.6570    0.0431
Li    Li1626        0.3887    0.6391    0.2164
Li    Li1627        0.5209    0.6653    0.2192
Li    Li1628        0.2405    0.6361    0.0199
Li    Li1629        0.4951    0.6914    0.3406
Li    Li1630        0.3718    0.6895    0.4036
Li    Li1631        0.3610    0.6766    0.2650
Li    Li1632        0.2431    0.6395    0.2862
Li    Li1633        0.2232    0.6132    0.6544
Li    Li1634        0.4278    0.6109    0.5797
Li    Li1635        0.3707    0.6597    0.5398
Li    Li1636        0.2716    0.6375    0.5299
Li    Li1637        0.2305    0.6065    0.9098
Li    Li1638        0.4033    0.6073    0.8508
Li    Li1639        0.3733    0.6877    0.8911
Li    Li1640        0.3631    0.6675    0.7692
Li    Li1641        0.2426    0.6314    0.7692
Li    Li1642        0.4815    0.7820    0.0968
Li    Li1643        0.3730    0.7351    0.2199
Li    Li1644        0.2551    0.7356    0.0280
Li    Li1645        0.2544    0.7060    0.4139
Li    Li1646        0.5116    0.7897    0.3376
Li    Li1647        0.3750    0.7031    0.3486
Li    Li1648        0.3811    0.7931    0.3943
Li    Li1649        0.3717    0.7605    0.2827
Li    Li1650        0.3788    0.7355    0.4795
Li    Li1651        0.4862    0.7652    0.4728
Li    Li1652        0.2628    0.7360    0.2763
Li    Li1653        0.2435    0.7189    0.6391
Li    Li1654        0.2268    0.7093    0.9187
Li    Li1655        0.3605    0.7789    0.9027
Li    Li1656        0.3685    0.7669    0.7628
Li    Li1657        0.2743    0.7337    0.7792
Li    Li1658        0.2319    0.8215    0.1463
Li    Li1659        0.5000    0.8788    0.1016
Li    Li1660        0.3958    0.8157    0.0891
Li    Li1661        0.3473    0.8937    0.1659
Li    Li1662        0.3593    0.8125    0.3457
Li    Li1663        0.3957    0.8800    0.4015
Li    Li1664        0.3708    0.8369    0.4647
Li    Li1665        0.4881    0.8850    0.5997
Li    Li1666        0.3707    0.8146    0.5877
Li    Li1667        0.3833    0.8034    0.8424
Li    Li1668        0.3668    0.8828    0.9090
Li    Li1669        0.3546    0.8635    0.7801
Li    Li1670        0.3776    0.8396    0.9763
Li    Li1671        0.3967    0.9116    0.0715
Li    Li1672        0.3817    0.9816    0.1534
Li    Li1673        0.3542    0.9782    0.0259
Li    Li1674        0.2628    0.9372    0.0290
Li    Li1675        0.2544    0.9142    0.4067
Li    Li1676        0.4818    0.9820    0.3449
Li    Li1677        0.3777    0.9585    0.2671
Li    Li1678        0.3942    0.9320    0.4779
Li    Li1679        0.2408    0.9266    0.2730
Li    Li1680        0.2536    0.9051    0.6614
Li    Li1681        0.3738    0.9107    0.5889
Li    Li1682        0.3785    0.9606    0.5268
Li    Li1683        0.2710    0.9264    0.8955
Li    Li1684        0.3506    0.9081    0.8501
Li    Li1685        0.3740    0.9933    0.9022
Li    Li1686        0.3799    0.9576    0.7877
Li    Li1687        0.3571    0.9402    0.9657
Li    Li1688        0.4997    0.9610    0.9833
Li    Li1689        0.2415    0.9434    0.7785
Li    Li1690        0.5195    0.0232    0.1502
Li    Li1691        0.7513    0.0893    0.0904
Li    Li1692        0.6192    0.0645    0.0383
Li    Li1693        0.5201    0.0425    0.0170
Li    Li1694        0.4856    0.0167    0.3950
Li    Li1695        0.7603    0.0832    0.3529
Li    Li1696        0.6410    0.0106    0.3401
Li    Li1697        0.4928    0.0346    0.2684
Li    Li1698        0.5035    0.0418    0.5089
Li    Li1699        0.7703    0.0805    0.8626
Li    Li1700        0.7891    0.0700    0.9738
Li    Li1701        0.4907    0.1212    0.1407
Li    Li1702        0.7558    0.1831    0.0953
Li    Li1703        0.6354    0.1176    0.0925
Li    Li1704        0.6138    0.1929    0.1615
Li    Li1705        0.4976    0.1421    0.7814
Li    Li1706        0.5181    0.2145    0.1580
Li    Li1707        0.6093    0.2147    0.0920
Li    Li1708        0.6462    0.2612    0.0262
Li    Li1709        0.4833    0.2391    0.2865
Li    Li1710        0.7550    0.2914    0.5972
Li    Li1711        0.7554    0.2679    0.7264
Li    Li1712        0.7481    0.2967    0.8400
Li    Li1713        0.6346    0.2125    0.8469
Li    Li1714        0.6089    0.2881    0.9044
Li    Li1715        0.6361    0.2624    0.7821
Li    Li1716        0.6415    0.2356    0.9792
Li    Li1717        0.4678    0.3316    0.1449
Li    Li1718        0.7441    0.3872    0.3526
Li    Li1719        0.6398    0.3196    0.3463
Li    Li1720        0.7479    0.3619    0.4709
Li    Li1721        0.4844    0.3143    0.6473
Li    Li1722        0.7313    0.3800    0.6055
Li    Li1723        0.6127    0.3741    0.6520
Li    Li1724        0.5918    0.3406    0.7138
Li    Li1725        0.4977    0.3138    0.9019
Li    Li1726        0.7480    0.3956    0.8441
Li    Li1727        0.6328    0.3104    0.8367
Li    Li1728        0.6498    0.3899    0.9080
Li    Li1729        0.7498    0.3622    0.9754
Li    Li1730        0.4772    0.3355    0.7905
Li    Li1731        0.6146    0.4881    0.1554
Li    Li1732        0.6026    0.4669    0.0129
Li    Li1733        0.6394    0.4384    0.2163
Li    Li1734        0.7536    0.4561    0.2198
Li    Li1735        0.4795    0.4164    0.4019
Li    Li1736        0.6431    0.4708    0.3887
Li    Li1737        0.6381    0.4317    0.4775
Li    Li1738        0.4815    0.4387    0.2899
Li    Li1739        0.6173    0.4818    0.6445
Li    Li1740        0.6033    0.4696    0.5225
Li    Li1741        0.6350    0.4423    0.7194
Li    Li1742        0.4919    0.4348    0.5282
Li    Li1743        0.5083    0.4001    0.8897
Li    Li1744        0.6235    0.4080    0.8561
Li    Li1745        0.5942    0.4910    0.9113
Li    Li1746        0.6374    0.4591    0.7745
Li    Li1747        0.7766    0.4722    0.9687
Li    Li1748        0.4926    0.5133    0.1568
Li    Li1749        0.6148    0.5849    0.1464
Li    Li1750        0.5940    0.5622    0.0357
Li    Li1751        0.5177    0.5314    0.0320
Li    Li1752        0.7310    0.5925    0.3510
Li    Li1753        0.6275    0.5049    0.3382
Li    Li1754        0.6302    0.5624    0.2761
Li    Li1755        0.6469    0.5355    0.7267
Li    Li1756        0.4972    0.5211    0.9071
Li    Li1757        0.7542    0.5921    0.8445
Li    Li1758        0.6241    0.5049    0.8450
Li    Li1759        0.6248    0.5617    0.7852
Li    Li1760        0.5203    0.6132    0.1629
Li    Li1761        0.7568    0.6950    0.0963
Li    Li1762        0.6143    0.6112    0.0992
Li    Li1763        0.6308    0.6566    0.0192
Li    Li1764        0.6487    0.6365    0.2208
Li    Li1765        0.4584    0.6314    0.0339
Li    Li1766        0.6227    0.6158    0.3423
Li    Li1767        0.6203    0.6859    0.4011
Li    Li1768        0.6153    0.6642    0.2800
Li    Li1769        0.7495    0.6664    0.7225
Li    Li1770        0.4917    0.6278    0.8954
Li    Li1771        0.6443    0.6282    0.8518
Li    Li1772        0.6510    0.6427    0.9999
Li    Li1773        0.7443    0.7922    0.0861
Li    Li1774        0.6287    0.7131    0.0953
Li    Li1775        0.6129    0.7322    0.2165
Li    Li1776        0.5149    0.7119    0.4057
Li    Li1777        0.6024    0.7196    0.3494
Li    Li1778        0.6242    0.7871    0.4028
Li    Li1779        0.6088    0.7630    0.2863
Li    Li1780        0.6325    0.7338    0.4628
Li    Li1781        0.5006    0.7360    0.2802
Li    Li1782        0.7354    0.7648    0.9696
Li    Li1783        0.4894    0.8179    0.1422
Li    Li1784        0.6301    0.8418    0.2202
Li    Li1785        0.5197    0.8332    0.0336
Li    Li1786        0.5997    0.8540    0.2519
Li    Li1787        0.4983    0.8074    0.9046
Li    Li1788        0.6397    0.8360    0.9866
Li    Li1789        0.7798    0.8655    0.9808
Li    Li1790        0.6120    0.9196    0.0961
Li    Li1791        0.5167    0.9439    0.0225
Li    Li1792        0.5097    0.9099    0.3974
Li    Li1793        0.7406    0.9765    0.3475
Li    Li1794        0.6466    0.9178    0.3474
Li    Li1795        0.7570    0.9829    0.8512
Li    Li1796        0.6226    0.9405    0.9707
Li    Li1797        0.7469    0.9562    0.9704
Li    Li1798        0.8748    0.0819    0.1576
Li    Li1799        0.0053    0.0798    0.3541
Li    Li1800        0.8815    0.0229    0.3470
Li    Li1801        0.8527    0.0604    0.2843
Li    Li1802        0.0148    0.0609    0.4544
Li    Li1803        0.9018    0.0089    0.8296
Li    Li1804        0.8429    0.0743    0.7670
Li    Li1805        0.9987    0.0648    0.9782
Li    Li1806        0.7392    0.1135    0.1473
Li    Li1807        0.8646    0.1107    0.1036
Li    Li1808        0.8613    0.1878    0.1580
Li    Li1809        0.8687    0.1357    0.2206
Li    Li1810        0.0343    0.1641    0.2250
Li    Li1811        0.7299    0.1250    0.0229
Li    Li1812        0.0009    0.1890    0.3457
Li    Li1813        0.8886    0.1224    0.3577
Li    Li1814        0.8795    0.1686    0.2812
Li    Li1815        0.8943    0.1368    0.4688
Li    Li1816        0.8896    0.1098    0.5874
Li    Li1817        0.0197    0.1717    0.7318
Li    Li1818        0.7487    0.1120    0.8993
Li    Li1819        0.8431    0.1055    0.8406
Li    Li1820        0.8929    0.1860    0.9062
Li    Li1821        0.8713    0.1621    0.7804
Li    Li1822        0.0080    0.1594    0.9687
Li    Li1823        0.8713    0.2097    0.0871
Li    Li1824        0.8787    0.2967    0.1580
Li    Li1825        0.8769    0.2324    0.2259
Li    Li1826        0.0212    0.2616    0.2226
Li    Li1827        0.7460    0.2397    0.0346
Li    Li1828        0.8520    0.2745    0.2679
Li    Li1829        0.8860    0.2443    0.4692
Li    Li1830        0.9813    0.2708    0.4726
Li    Li1831        0.9945    0.2860    0.5924
Li    Li1832        0.8604    0.2816    0.6666
Li    Li1833        0.8638    0.2358    0.7170
Li    Li1834        0.0131    0.2730    0.7352
Li    Li1835        0.7345    0.2289    0.5291
Li    Li1836        0.7340    0.2130    0.9007
Li    Li1837        0.9971    0.2888    0.8521
Li    Li1838        0.8953    0.2162    0.8465
Li    Li1839        0.8278    0.2960    0.9114
Li    Li1840        0.8727    0.2596    0.7841
Li    Li1841        0.8655    0.2394    0.9820
Li    Li1842        0.0071    0.3875    0.0980
Li    Li1843        0.8741    0.3117    0.1014
Li    Li1844        0.8436    0.3703    0.0308
Li    Li1845        0.8730    0.3436    0.2256
Li    Li1846        0.0098    0.3659    0.2315
Li    Li1847        0.8934    0.3088    0.3494
Li    Li1848        0.8830    0.3852    0.4031
Li    Li1849        0.8648    0.3739    0.2741
Li    Li1850        0.8847    0.3449    0.4685
Li    Li1851        0.7757    0.3387    0.2858
Li    Li1852        0.7396    0.3235    0.6429
Li    Li1853        0.9963    0.3879    0.6052
Li    Li1854        0.8948    0.3108    0.5815
Li    Li1855        0.8676    0.3845    0.6565
Li    Li1856        0.0454    0.3713    0.7242
Li    Li1857        0.7509    0.3102    0.9015
Li    Li1858        0.9971    0.3906    0.8468
Li    Li1859        0.8932    0.3059    0.8460
Li    Li1860        0.8567    0.3927    0.9075
Li    Li1861        0.8522    0.3708    0.7735
Li    Li1862        0.0185    0.3584    0.9681
Li    Li1863        0.7550    0.3424    0.7814
Li    Li1864        0.0031    0.4939    0.0958
Li    Li1865        0.8737    0.4905    0.1597
Li    Li1866        0.9992    0.4518    0.2204
Li    Li1867        0.7459    0.4290    0.3967
Li    Li1868        0.8611    0.4140    0.3466
Li    Li1869        0.8872    0.4611    0.2803
Li    Li1870        0.7497    0.4431    0.2896
Li    Li1871        0.8424    0.4914    0.9158
Li    Li1872        0.8786    0.4459    0.9763
Li    Li1873        0.7298    0.4300    0.7743
Li    Li1874        0.9951    0.5996    0.0912
Li    Li1875        0.7455    0.5116    0.4110
Li    Li1876        0.9945    0.5862    0.3487
Li    Li1877        0.7496    0.5037    0.9074
Li    Li1878        0.9913    0.5853    0.8608
Li    Li1879        0.7206    0.5321    0.7757
Li    Li1880        0.0038    0.6893    0.0927
Li    Li1881        0.8774    0.6237    0.2234
Li    Li1882        0.0057    0.6609    0.2189
Li    Li1883        0.7358    0.6349    0.0391
Li    Li1884        0.0005    0.6859    0.3407
Li    Li1885        0.7568    0.6424    0.2677
Li    Li1886        0.7538    0.6097    0.9025
Li    Li1887        0.8946    0.6153    0.8546
Li    Li1888        0.8490    0.6885    0.9080
Li    Li1889        0.8509    0.6649    0.7548
Li    Li1890        0.8845    0.6266    0.9796
Li    Li1891        0.9843    0.6602    0.9706
Li    Li1892        0.7253    0.6207    0.7694
Li    Li1893        0.7465    0.7126    0.1603
Li    Li1894        0.8897    0.7700    0.1587
Li    Li1895        0.8707    0.7668    0.0302
Li    Li1896        0.7462    0.7446    0.0305
Li    Li1897        0.0096    0.7572    0.4739
Li    Li1898        0.8770    0.7856    0.9039
Li    Li1899        0.8648    0.7342    0.9704
Li    Li1900        0.7410    0.8157    0.1413
Li    Li1901        0.8774    0.8437    0.2209
Li    Li1902        0.9867    0.8524    0.4863
Li    Li1903        0.9873    0.8832    0.8423
Li    Li1904        0.8763    0.8078    0.8585
Li    Li1905        0.8687    0.8863    0.8912
Li    Li1906        0.0265    0.8665    0.9773
Li    Li1907        0.0069    0.9949    0.3370
Li    Li1908        0.9956    0.9914    0.5911
Li    Li1909        0.8727    0.9397    0.7182
Li    Li1910        0.8829    0.9063    0.8427
Li    Li1911        0.8859    0.9872    0.9031
Li    Li1912        0.8752    0.9584    0.7747
Li    Li1913        0.8978    0.9418    0.9616
Li    Li1914        0.0028    0.9582    0.9694
