data_max_cluster
_audit_creation_method         'generated by data2config v5.5c'
 
_cell_length_a                  84.92680
_cell_length_b                  87.57400
_cell_length_c                  75.14280
_cell_angle_alpha               90.00000
_cell_angle_beta                96.73700
_cell_angle_gamma               90.00000
 
loop_
_symmetry_equiv_pos_as_xyz
'+x,+y,+z'
 
loop_
_atom_site_type_symbol
_atom_site_label
_atom_site_fract_x
_atom_site_fract_y
_atom_site_fract_z
Li    Li1        0.2018    0.0406    0.2734
Li    Li2        0.0437    0.0658    0.4562
Li    Li3        0.0921    0.0624    0.2851
Li    Li4        0.1591    0.0092    0.3271
Li    Li5        0.0345    0.0870    0.3359
Li    Li6        0.2246    0.0071    0.4088
Li    Li7        0.0368    0.0899    0.8293
Li    Li8        0.0876    0.1652    0.0313
Li    Li9        0.2226    0.1429    0.2951
Li    Li10        0.1645    0.1390    0.4560
Li    Li11        0.0431    0.1845    0.3405
Li    Li12        0.2147    0.1011    0.4051
Li    Li13        0.1654    0.1347    0.7096
Li    Li14        0.0871    0.1618    0.5493
Li    Li15        0.0375    0.2868    0.0836
Li    Li16        0.1554    0.2390    0.4561
Li    Li17        0.2032    0.2184    0.4155
Li    Li18        0.0376    0.2665    0.7088
Li    Li19        0.1602    0.2415    0.7220
Li    Li20        0.0899    0.2616    0.5416
Li    Li21        0.2203    0.2084    0.6603
Li    Li22        0.2072    0.2423    0.7689
Li    Li23        0.0464    0.3886    0.0890
Li    Li24        0.2083    0.3365    0.2698
Li    Li25        0.0953    0.3662    0.2891
Li    Li26        0.0890    0.3837    0.4047
Li    Li27        0.1528    0.3155    0.3511
Li    Li28        0.0323    0.3805    0.3446
Li    Li29        0.1626    0.3338    0.7121
Li    Li30        0.0291    0.3629    0.9655
Li    Li31        0.1695    0.4101    0.0854
Li    Li32        0.2165    0.4078    0.1688
Li    Li33        0.0871    0.4898    0.4200
Li    Li34        0.0334    0.4940    0.3306
Li    Li35        0.2216    0.4309    0.7802
Li    Li36        0.1587    0.4289    0.9640
Li    Li37        0.0985    0.4756    0.8880
Li    Li38        0.2115    0.4077    0.9223
Li    Li39        0.0450    0.5614    0.4675
Li    Li40        0.1594    0.5398    0.4693
Li    Li41        0.0970    0.5878    0.4107
Li    Li42        0.2123    0.5057    0.4234
Li    Li43        0.0984    0.5788    0.6580
Li    Li44        0.1546    0.5126    0.5865
Li    Li45        0.0901    0.5902    0.8915
Li    Li46        0.1543    0.5183    0.8445
Li    Li47        0.2121    0.6417    0.0429
Li    Li48        0.0404    0.6730    0.2110
Li    Li49        0.2162    0.6210    0.2695
Li    Li50        0.0888    0.6685    0.2856
Li    Li51        0.0911    0.6884    0.4191
Li    Li52        0.0532    0.6927    0.3359
Li    Li53        0.1627    0.6139    0.5968
Li    Li54        0.2062    0.6206    0.6661
Li    Li55        0.2221    0.6448    0.8077
Li    Li56        0.0884    0.6646    0.7848
Li    Li57        0.1589    0.6123    0.8434
Li    Li58        0.0433    0.7602    0.2067
Li    Li59        0.0963    0.7831    0.4107
Li    Li60        0.2149    0.7097    0.4120
Li    Li61        0.2144    0.7479    0.5433
Li    Li62        0.1432    0.7156    0.5921
Li    Li63        0.2092    0.7104    0.6461
Li    Li64        0.0383    0.7865    0.8487
Li    Li65        0.2095    0.7113    0.9200
Li    Li66        0.1717    0.8360    0.4632
Li    Li67        0.1000    0.8648    0.2717
Li    Li68        0.0416    0.8816    0.3529
Li    Li69        0.2068    0.8396    0.5464
Li    Li70        0.1727    0.8176    0.8450
Li    Li71        0.1622    0.9362    0.2078
Li    Li72        0.2089    0.9434    0.2997
Li    Li73        0.1461    0.9150    0.3362
Li    Li74        0.0930    0.9590    0.7772
Li    Li75        0.0391    0.9893    0.8237
Li    Li76        0.4623    0.0396    0.0489
Li    Li77        0.4637    0.0425    0.2980
Li    Li78        0.4049    0.0112    0.3286
Li    Li79        0.3528    0.0682    0.7948
Li    Li80        0.2920    0.0913    0.8340
Li    Li81        0.2900    0.1580    0.2055
Li    Li82        0.4160    0.1366    0.2048
Li    Li83        0.4554    0.1130    0.1688
Li    Li84        0.3288    0.1861    0.6663
Li    Li85        0.2953    0.1615    0.9662
Li    Li86        0.2850    0.1889    0.8329
Li    Li87        0.3420    0.2913    0.1656
Li    Li88        0.2828    0.2981    0.0977
Li    Li89        0.2928    0.2679    0.4712
Li    Li90        0.4658    0.2394    0.7922
Li    Li91        0.3022    0.2889    0.8469
Li    Li92        0.4568    0.2154    0.9164
Li    Li93        0.4593    0.3405    0.0199
Li    Li94        0.2877    0.3799    0.2342
Li    Li95        0.4036    0.3387    0.2128
Li    Li96        0.3420    0.3592    0.0468
Li    Li97        0.4165    0.3146    0.0812
Li    Li98        0.2896    0.3849    0.1013
Li    Li99        0.4616    0.3114    0.1701
Li    Li100        0.2680    0.3569    0.7104
Li    Li101        0.4109    0.3371    0.7020
Li    Li102        0.3528    0.3645    0.5256
Li    Li103        0.3461    0.3846    0.6546
Li    Li104        0.4111    0.3296    0.9631
Li    Li105        0.4056    0.4354    0.2028
Li    Li106        0.3327    0.4651    0.0296
Li    Li107        0.3460    0.4854    0.1516
Li    Li108        0.2876    0.4618    0.4689
Li    Li109        0.3381    0.4626    0.7785
Li    Li110        0.3369    0.4838    0.9187
Li    Li111        0.4555    0.5393    0.0406
Li    Li112        0.3576    0.5613    0.0380
Li    Li113        0.3369    0.5877    0.1660
Li    Li114        0.2860    0.5898    0.3231
Li    Li115        0.4131    0.5410    0.7094
Li    Li116        0.4596    0.5392    0.7969
Li    Li117        0.4031    0.5406    0.9546
Li    Li118        0.4205    0.5147    0.8556
Li    Li119        0.4557    0.6367    0.0460
Li    Li120        0.3522    0.6684    0.0364
Li    Li121        0.4116    0.6134    0.0907
Li    Li122        0.4691    0.6058    0.1678
Li    Li123        0.4691    0.6337    0.2872
Li    Li124        0.4086    0.6100    0.3324
Li    Li125        0.4582    0.6385    0.5438
Li    Li126        0.4056    0.6516    0.7151
Li    Li127        0.3419    0.6854    0.6616
Li    Li128        0.4186    0.6262    0.9804
Li    Li129        0.3335    0.6802    0.7726
Li    Li130        0.4572    0.7333    0.0397
Li    Li131        0.2851    0.7661    0.2060
Li    Li132        0.2878    0.7590    0.4472
Li    Li133        0.4083    0.7355    0.4692
Li    Li134        0.3427    0.7665    0.2833
Li    Li135        0.4149    0.7113    0.3324
Li    Li136        0.3377    0.7711    0.5335
Li    Li137        0.2899    0.7823    0.5928
Li    Li138        0.4704    0.7182    0.6666
Li    Li139        0.3385    0.7701    0.7832
Li    Li140        0.3389    0.7896    0.9080
Li    Li141        0.3574    0.8657    0.0223
Li    Li142        0.2849    0.8912    0.0820
Li    Li143        0.3245    0.8957    0.4106
Li    Li144        0.2927    0.8645    0.7144
Li    Li145        0.3425    0.8902    0.6662
Li    Li146        0.2996    0.9615    0.2158
Li    Li147        0.3844    0.9413    0.2151
Li    Li148        0.3436    0.9900    0.1612
Li    Li149        0.3358    0.9849    0.4124
Li    Li150        0.4092    0.9022    0.3249
Li    Li151        0.4561    0.9143    0.4049
Li    Li152        0.4724    0.9392    0.5379
Li    Li153        0.4070    0.9120    0.5996
Li    Li154        0.5868    0.0602    0.0363
Li    Li155        0.5839    0.0875    0.1550
Li    Li156        0.6758    0.0250    0.0980
Li    Li157        0.7110    0.0343    0.2868
Li    Li158        0.6700    0.0160    0.3403
Li    Li159        0.5278    0.0834    0.7341
Li    Li160        0.5880    0.0825    0.6588
Li    Li161        0.5391    0.0604    0.9500
Li    Li162        0.6568    0.1409    0.2093
Li    Li163        0.5404    0.1796    0.0997
Li    Li164        0.5873    0.1598    0.2864
Li    Li165        0.7108    0.1079    0.4177
Li    Li166        0.7074    0.1196    0.9143
Li    Li167        0.6623    0.2158    0.8510
Li    Li168        0.6679    0.3276    0.2034
Li    Li169        0.6728    0.3083    0.0999
Li    Li170        0.7288    0.3142    0.1666
Li    Li171        0.5831    0.3500    0.7920
Li    Li172        0.5440    0.3817    0.8397
Li    Li173        0.5431    0.4690    0.2071
Li    Li174        0.5481    0.4903    0.0791
Li    Li175        0.5880    0.4662    0.5394
Li    Li176        0.5954    0.4850    0.6652
Li    Li177        0.7196    0.4364    0.7810
Li    Li178        0.5851    0.4678    0.7978
Li    Li179        0.5862    0.5888    0.1695
Li    Li180        0.5387    0.5874    0.3427
Li    Li181        0.5352    0.5687    0.7133
Li    Li182        0.7071    0.5172    0.6463
Li    Li183        0.5312    0.5555    0.9651
Li    Li184        0.5810    0.5766    0.9032
Li    Li185        0.7136    0.6350    0.0306
Li    Li186        0.6428    0.6338    0.2137
Li    Li187        0.5459    0.6904    0.1023
Li    Li188        0.7181    0.6377    0.5360
Li    Li189        0.5909    0.6548    0.5464
Li    Li190        0.7114    0.6162    0.6628
Li    Li191        0.7154    0.6319    0.7818
Li    Li192        0.6626    0.7181    0.0944
Li    Li193        0.5265    0.7721    0.4659
Li    Li194        0.6091    0.7840    0.4073
Li    Li195        0.7181    0.7164    0.4119
Li    Li196        0.6705    0.7342    0.6927
Li    Li197        0.5759    0.7651    0.7786
Li    Li198        0.7096    0.8381    0.2909
Li    Li199        0.5321    0.8822    0.3398
Li    Li200        0.5837    0.8635    0.5399
Li    Li201        0.6614    0.8177    0.5818
Li    Li202        0.5661    0.8620    0.7734
Li    Li203        0.5881    0.8861    0.9068
Li    Li204        0.6608    0.8048    0.8342
Li    Li205        0.5411    0.9890    0.0818
Li    Li206        0.7125    0.9366    0.5401
Li    Li207        0.5210    0.9722    0.7287
Li    Li208        0.5840    0.9924    0.6685
Li    Li209        0.6587    0.9106    0.5756
Li    Li210        0.6522    0.9141    0.8435
Li    Li211        0.5362    0.9883    0.8351
Li    Li212        0.8372    0.0604    0.2929
Li    Li213        0.7906    0.0874    0.3353
Li    Li214        0.9086    0.0370    0.9693
Li    Li215        0.9163    0.1257    0.2262
Li    Li216        0.8417    0.1656    0.0393
Li    Li217        0.9582    0.1421    0.2930
Li    Li218        0.8422    0.1818    0.4153
Li    Li219        0.7916    0.1869    0.8466
Li    Li220        0.9137    0.2356    0.2087
Li    Li221        0.9126    0.2147    0.0862
Li    Li222        0.9651    0.2376    0.5385
Li    Li223        0.9629    0.2404    0.7979
Li    Li224        0.9050    0.2133    0.8315
Li    Li225        0.9687    0.3399    0.0400
Li    Li226        0.7847    0.3638    0.2005
Li    Li227        0.9168    0.2988    0.0713
Li    Li228        0.7824    0.3820    0.0923
Li    Li229        0.7894    0.3611    0.7073
Li    Li230        0.9184    0.3399    0.7170
Li    Li231        0.8349    0.3876    0.6580
Li    Li232        0.8340    0.3593    0.7928
Li    Li233        0.7829    0.3948    0.8371
Li    Li234        0.8397    0.4628    0.0230
Li    Li235        0.7898    0.4807    0.1028
Li    Li236        0.9679    0.4296    0.7786
Li    Li237        0.9111    0.4391    0.9627
Li    Li238        0.9575    0.4144    0.9243
Li    Li239        0.8372    0.5892    0.4129
Li    Li240        0.9746    0.5160    0.4143
Li    Li241        0.9639    0.5352    0.5364
Li    Li242        0.9626    0.5100    0.6646
Li    Li243        0.7780    0.5674    0.9746
Li    Li244        0.9145    0.5126    0.8326
Li    Li245        0.7935    0.6581    0.2082
Li    Li246        0.8367    0.6834    0.4091
Li    Li247        0.9130    0.6167    0.3273
Li    Li248        0.9611    0.6155    0.4117
Li    Li249        0.8433    0.6606    0.5346
Li    Li250        0.8384    0.6804    0.6681
Li    Li251        0.9090    0.6078    0.8392
Li    Li252        0.7674    0.6871    0.8354
Li    Li253        0.9591    0.6159    0.9000
Li    Li254        0.9244    0.7355    0.2289
Li    Li255        0.8240    0.7787    0.1667
Li    Li256        0.9681    0.7129    0.1518
Li    Li257        0.8316    0.7633    0.2890
Li    Li258        0.9548    0.7327    0.5303
Li    Li259        0.7951    0.7902    0.5809
Li    Li260        0.9661    0.7197    0.6482
Li    Li261        0.7974    0.8621    0.2153
Li    Li262        0.9113    0.8151    0.0792
Li    Li263        0.9703    0.8113    0.1606
Li    Li264        0.8279    0.9652    0.2942
Li    Li265        0.9686    0.9309    0.5332
Li    Li266        0.2026    0.0384    0.1928
Li    Li267        0.1535    0.0068    0.1974
Li    Li268        0.0688    0.0596    0.4221
Li    Li269        0.2103    0.0379    0.4296
Li    Li270        0.0442    0.0673    0.3265
Li    Li271        0.2020    0.0144    0.2991
Li    Li272        0.0762    0.0826    0.2978
Li    Li273        0.1687    0.0067    0.4476
Li    Li274        0.0460    0.0616    0.8311
Li    Li275        0.0810    0.0861    0.8050
Li    Li276        0.2098    0.1389    0.1768
Li    Li277        0.0747    0.1807    0.0476
Li    Li278        0.1710    0.1143    0.2079
Li    Li279        0.1747    0.1368    0.3117
Li    Li280        0.1966    0.1447    0.4226
Li    Li281        0.0438    0.1649    0.3182
Li    Li282        0.2058    0.1075    0.3077
Li    Li283        0.0825    0.1848    0.2982
Li    Li284        0.1773    0.1185    0.4518
Li    Li285        0.1751    0.1416    0.5649
Li    Li286        0.2099    0.1431    0.6749
Li    Li287        0.0432    0.1630    0.5686
Li    Li288        0.0758    0.1880    0.5518
Li    Li289        0.1767    0.1150    0.6952
Li    Li290        0.1709    0.1336    0.8240
Li    Li291        0.0784    0.1664    0.9272
Li    Li292        0.0446    0.1811    0.9448
Li    Li293        0.2066    0.1159    0.8015
Li    Li294        0.0238    0.2788    0.1936
Li    Li295        0.0823    0.2944    0.0513
Li    Li296        0.0740    0.2588    0.4258
Li    Li297        0.1889    0.2435    0.4263
Li    Li298        0.0531    0.2911    0.4385
Li    Li299        0.0773    0.2925    0.3037
Li    Li300        0.1717    0.2171    0.4465
Li    Li301        0.1615    0.2413    0.5637
Li    Li302        0.0833    0.2700    0.6803
Li    Li303        0.2020    0.2413    0.6767
Li    Li304        0.0308    0.2521    0.5672
Li    Li305        0.0440    0.2845    0.6935
Li    Li306        0.1679    0.2321    0.6781
Li    Li307        0.0898    0.2626    0.9309
Li    Li308        0.1945    0.2200    0.9507
Li    Li309        0.0568    0.2848    0.9540
Li    Li310        0.1710    0.2103    0.9474
Li    Li311        0.1557    0.3440    0.0679
Li    Li312        0.0850    0.3617    0.1768
Li    Li313        0.1986    0.3367    0.1774
Li    Li314        0.0508    0.3600    0.0691
Li    Li315        0.1981    0.3153    0.0578
Li    Li316        0.0793    0.3800    0.0479
Li    Li317        0.1705    0.3148    0.2010
Li    Li318        0.1726    0.3305    0.3237
Li    Li319        0.0462    0.3674    0.3283
Li    Li320        0.2074    0.3198    0.3062
Li    Li321        0.0806    0.3866    0.3151
Li    Li322        0.2035    0.3345    0.6727
Li    Li323        0.0386    0.4018    0.6912
Li    Li324        0.1751    0.3365    0.8205
Li    Li325        0.0838    0.3671    0.9248
Li    Li326        0.2050    0.3384    0.9198
Li    Li327        0.0460    0.3734    0.8235
Li    Li328        0.0428    0.3857    0.9546
Li    Li329        0.1836    0.3280    0.9566
Li    Li330        0.1678    0.4385    0.0817
Li    Li331        0.2053    0.4384    0.1869
Li    Li332        0.2004    0.4108    0.0595
Li    Li333        0.1668    0.4068    0.1910
Li    Li334        0.2087    0.4372    0.4272
Li    Li335        0.0475    0.4953    0.4395
Li    Li336        0.0781    0.4862    0.3177
Li    Li337        0.1750    0.4126    0.4388
Li    Li338        0.2039    0.4314    0.6684
Li    Li339        0.2069    0.4147    0.5472
Li    Li340        0.1746    0.4129    0.7004
Li    Li341        0.0822    0.4571    0.9213
Li    Li342        0.1976    0.4317    0.9337
Li    Li343        0.0450    0.4658    0.8210
Li    Li344        0.0474    0.4794    0.9492
Li    Li345        0.1679    0.4083    0.9451
Li    Li346        0.0412    0.5944    0.1853
Li    Li347        0.1754    0.5321    0.3157
Li    Li348        0.0857    0.5592    0.4279
Li    Li349        0.2019    0.5342    0.4302
Li    Li350        0.0488    0.5619    0.3185
Li    Li351        0.1676    0.5117    0.4455
Li    Li352        0.1721    0.5439    0.5734
Li    Li353        0.2097    0.5252    0.5484
Li    Li354        0.0797    0.5776    0.5455
Li    Li355        0.1656    0.5402    0.8182
Li    Li356        0.0798    0.5619    0.9270
Li    Li357        0.1958    0.5266    0.9188
Li    Li358        0.0443    0.5888    0.9256
Li    Li359        0.2081    0.5092    0.8037
Li    Li360        0.1657    0.6362    0.0646
Li    Li361        0.0678    0.6710    0.1801
Li    Li362        0.0484    0.6882    0.1941
Li    Li363        0.2004    0.6143    0.0432
Li    Li364        0.0809    0.6834    0.0508
Li    Li365        0.1712    0.6345    0.3261
Li    Li366        0.0791    0.6636    0.4193
Li    Li367        0.2030    0.6333    0.4289
Li    Li368        0.0481    0.6646    0.3274
Li    Li369        0.0454    0.6830    0.4497
Li    Li370        0.2157    0.6140    0.3058
Li    Li371        0.0906    0.6938    0.3157
Li    Li372        0.1750    0.6124    0.4478
Li    Li373        0.1700    0.6300    0.5798
Li    Li374        0.0859    0.6829    0.6895
Li    Li375        0.0463    0.6893    0.6987
Li    Li376        0.2011    0.6118    0.5570
Li    Li377        0.1666    0.6271    0.6670
Li    Li378        0.1693    0.6319    0.8260
Li    Li379        0.2181    0.6410    0.9279
Li    Li380        0.0430    0.6590    0.8201
Li    Li381        0.2031    0.6106    0.8072
Li    Li382        0.0795    0.6827    0.7980
Li    Li383        0.1692    0.6111    0.9527
Li    Li384        0.0767    0.7701    0.1742
Li    Li385        0.0274    0.7595    0.0697
Li    Li386        0.2082    0.7071    0.0521
Li    Li387        0.1684    0.7148    0.1918
Li    Li388        0.2124    0.7339    0.4355
Li    Li389        0.2112    0.7127    0.3064
Li    Li390        0.1708    0.7116    0.4500
Li    Li391        0.0812    0.7562    0.6800
Li    Li392        0.0525    0.7766    0.6905
Li    Li393        0.2041    0.7176    0.5438
Li    Li394        0.0827    0.7879    0.5501
Li    Li395        0.1686    0.7195    0.6957
Li    Li396        0.2035    0.7371    0.9234
Li    Li397        0.0513    0.7700    0.8229
Li    Li398        0.0495    0.7858    0.9477
Li    Li399        0.0832    0.7833    0.8004
Li    Li400        0.0819    0.8623    0.1786
Li    Li401        0.0443    0.8666    0.0672
Li    Li402        0.0457    0.8886    0.1911
Li    Li403        0.0816    0.8909    0.0512
Li    Li404        0.0856    0.8649    0.4309
Li    Li405        0.2057    0.8367    0.4240
Li    Li406        0.0392    0.8734    0.3227
Li    Li407        0.0767    0.8980    0.3092
Li    Li408        0.1697    0.8376    0.5752
Li    Li409        0.2002    0.8191    0.8067
Li    Li410        0.0768    0.9588    0.1710
Li    Li411        0.1868    0.9244    0.1824
Li    Li412        0.0439    0.9839    0.1903
Li    Li413        0.1741    0.9417    0.3168
Li    Li414        0.2037    0.9388    0.4212
Li    Li415        0.2062    0.9118    0.3026
Li    Li416        0.0732    0.9961    0.2930
Li    Li417        0.2008    0.9184    0.4422
Li    Li418        0.0354    0.9672    0.5679
Li    Li419        0.0846    0.9845    0.5543
Li    Li420        0.0444    0.9673    0.8199
Li    Li421        0.0746    0.9833    0.8035
Li    Li422        0.4143    0.0333    0.0611
Li    Li423        0.2972    0.0858    0.1977
Li    Li424        0.4746    0.0086    0.0685
Li    Li425        0.4224    0.0346    0.3264
Li    Li426        0.3387    0.0667    0.4347
Li    Li427        0.4514    0.0360    0.4285
Li    Li428        0.2955    0.0647    0.3183
Li    Li429        0.4584    0.0103    0.3035
Li    Li430        0.4281    0.0156    0.4479
Li    Li431        0.4538    0.0143    0.5530
Li    Li432        0.3033    0.0637    0.8240
Li    Li433        0.3286    0.1603    0.1749
Li    Li434        0.4482    0.1366    0.1898
Li    Li435        0.2951    0.1611    0.0734
Li    Li436        0.2987    0.1889    0.2022
Li    Li437        0.4134    0.1142    0.1980
Li    Li438        0.2945    0.1680    0.3217
Li    Li439        0.3339    0.1833    0.3013
Li    Li440        0.3460    0.1543    0.6820
Li    Li441        0.2817    0.1876    0.6915
Li    Li442        0.4215    0.1349    0.8192
Li    Li443        0.3302    0.1626    0.9212
Li    Li444        0.2935    0.1626    0.8203
Li    Li445        0.2939    0.1914    0.9537
Li    Li446        0.4580    0.1076    0.8084
Li    Li447        0.3331    0.1880    0.8056
Li    Li448        0.3416    0.2600    0.1807
Li    Li449        0.4530    0.2403    0.1719
Li    Li450        0.2982    0.2663    0.0719
Li    Li451        0.3452    0.2885    0.0628
Li    Li452        0.4194    0.2110    0.1975
Li    Li453        0.4577    0.2426    0.6777
Li    Li454        0.4232    0.2128    0.7035
Li    Li455        0.4199    0.2238    0.8422
Li    Li456        0.3445    0.2584    0.9282
Li    Li457        0.4443    0.2402    0.9375
Li    Li458        0.2897    0.2652    0.8226
Li    Li459        0.4514    0.2126    0.8040
Li    Li460        0.3346    0.2928    0.7966
Li    Li461        0.4117    0.2095    0.9413
Li    Li462        0.4226    0.3354    0.0708
Li    Li463        0.3271    0.3613    0.1733
Li    Li464        0.4475    0.3462    0.1796
Li    Li465        0.2890    0.3674    0.0704
Li    Li466        0.2866    0.3818    0.1950
Li    Li467        0.4573    0.3110    0.0548
Li    Li468        0.3129    0.3962    0.0546
Li    Li469        0.4138    0.3134    0.1917
Li    Li470        0.4174    0.3420    0.5715
Li    Li471        0.4517    0.3374    0.6731
Li    Li472        0.2815    0.3886    0.6706
Li    Li473        0.4568    0.3171    0.5555
Li    Li474        0.4221    0.3114    0.6949
Li    Li475        0.4266    0.3458    0.8201
Li    Li476        0.4614    0.3364    0.9298
Li    Li477        0.4483    0.3305    0.8173
Li    Li478        0.4205    0.3059    0.9403
Li    Li479        0.4214    0.4444    0.0681
Li    Li480        0.3305    0.4690    0.1771
Li    Li481        0.4541    0.4343    0.1787
Li    Li482        0.2939    0.4597    0.0711
Li    Li483        0.2877    0.4867    0.1939
Li    Li484        0.4574    0.4081    0.0601
Li    Li485        0.4253    0.4094    0.1923
Li    Li486        0.3270    0.4580    0.4315
Li    Li487        0.3241    0.4616    0.6795
Li    Li488        0.2963    0.4871    0.7003
Li    Li489        0.4083    0.4069    0.6984
Li    Li490        0.2987    0.4627    0.8276
Li    Li491        0.2980    0.4833    0.9514
Li    Li492        0.4200    0.5337    0.0748
Li    Li493        0.4590    0.5322    0.1786
Li    Li494        0.2964    0.5857    0.2061
Li    Li495        0.4445    0.5311    0.0663
Li    Li496        0.3495    0.5931    0.0579
Li    Li497        0.4192    0.5135    0.1848
Li    Li498        0.3362    0.5580    0.4261
Li    Li499        0.2945    0.5637    0.3297
Li    Li500        0.4193    0.5133    0.4467
Li    Li501        0.4531    0.5357    0.6761
Li    Li502        0.2920    0.5588    0.5742
Li    Li503        0.2920    0.5885    0.7039
Li    Li504        0.3490    0.5991    0.5613
Li    Li505        0.4069    0.5101    0.6918
Li    Li506        0.4139    0.5369    0.8187
Li    Li507        0.3290    0.5638    0.9226
Li    Li508        0.4616    0.5406    0.9358
Li    Li509        0.2964    0.5859    0.9535
Li    Li510        0.4752    0.5046    0.8097
Li    Li511        0.4163    0.5069    0.9441
Li    Li512        0.3163    0.6677    0.1736
Li    Li513        0.4634    0.6406    0.1861
Li    Li514        0.2962    0.6715    0.0766
Li    Li515        0.2890    0.6833    0.1935
Li    Li516        0.4512    0.6135    0.0544
Li    Li517        0.3351    0.6912    0.0543
Li    Li518        0.4240    0.6090    0.1953
Li    Li519        0.4114    0.6431    0.3227
Li    Li520        0.3343    0.6653    0.4295
Li    Li521        0.2914    0.6841    0.4431
Li    Li522        0.4492    0.6135    0.3092
Li    Li523        0.4149    0.6112    0.4488
Li    Li524        0.4234    0.6361    0.5768
Li    Li525        0.4514    0.6336    0.6817
Li    Li526        0.4621    0.6075    0.5565
Li    Li527        0.3397    0.6862    0.5581
Li    Li528        0.4182    0.6145    0.6978
Li    Li529        0.4168    0.6464    0.8060
Li    Li530        0.3340    0.6647    0.9235
Li    Li531        0.4532    0.6412    0.9387
Li    Li532        0.2938    0.6679    0.8217
Li    Li533        0.3060    0.7002    0.9432
Li    Li534        0.4532    0.6155    0.8123
Li    Li535        0.4191    0.6232    0.9480
Li    Li536        0.4243    0.7331    0.0728
Li    Li537        0.3349    0.7625    0.1857
Li    Li538        0.4575    0.7091    0.0606
Li    Li539        0.3423    0.7966    0.0526
Li    Li540        0.4402    0.7243    0.3188
Li    Li541        0.3171    0.7733    0.4359
Li    Li542        0.4497    0.7394    0.4336
Li    Li543        0.2917    0.7628    0.3220
Li    Li544        0.4578    0.7068    0.3218
Li    Li545        0.3344    0.7895    0.3023
Li    Li546        0.4189    0.7170    0.4495
Li    Li547        0.4210    0.7357    0.5663
Li    Li548        0.4566    0.7362    0.6778
Li    Li549        0.2966    0.7570    0.5774
Li    Li550        0.4495    0.7121    0.5545
Li    Li551        0.3281    0.7892    0.5566
Li    Li552        0.4223    0.7118    0.6912
Li    Li553        0.3370    0.7623    0.9267
Li    Li554        0.2963    0.7927    0.9477
Li    Li555        0.3288    0.7858    0.8075
Li    Li556        0.2975    0.8621    0.0711
Li    Li557        0.3226    0.8932    0.0539
Li    Li558        0.3250    0.8611    0.4291
Li    Li559        0.4506    0.8322    0.4253
Li    Li560        0.2895    0.8852    0.4490
Li    Li561        0.4356    0.8020    0.4430
Li    Li562        0.2973    0.8831    0.6954
Li    Li563        0.4486    0.8112    0.5533
Li    Li564        0.3226    0.8869    0.5528
Li    Li565        0.4570    0.8122    0.8063
Li    Li566        0.3299    0.9590    0.1746
Li    Li567        0.4528    0.9359    0.1779
Li    Li568        0.2940    0.9877    0.1913
Li    Li569        0.4167    0.9283    0.2074
Li    Li570        0.4268    0.9431    0.3302
Li    Li571        0.3264    0.9648    0.4274
Li    Li572        0.2965    0.9652    0.3288
Li    Li573        0.3012    0.9824    0.4535
Li    Li574        0.4526    0.9104    0.3029
Li    Li575        0.4232    0.9078    0.4452
Li    Li576        0.4200    0.9396    0.5769
Li    Li577        0.4547    0.9120    0.5525
Li    Li578        0.5682    0.0592    0.1772
Li    Li579        0.7061    0.0338    0.1695
Li    Li580        0.5481    0.0687    0.0697
Li    Li581        0.6997    0.0196    0.0601
Li    Li582        0.5797    0.0854    0.0526
Li    Li583        0.6730    0.0096    0.2034
Li    Li584        0.7072    0.0092    0.3068
Li    Li585        0.5437    0.0853    0.7035
Li    Li586        0.5952    0.0546    0.9275
Li    Li587        0.7189    0.0448    0.9310
Li    Li588        0.5898    0.0895    0.8070
Li    Li589        0.6730    0.0148    0.9463
Li    Li590        0.6715    0.1338    0.0783
Li    Li591        0.5887    0.1562    0.1798
Li    Li592        0.6955    0.1243    0.1801
Li    Li593        0.5429    0.1634    0.0814
Li    Li594        0.5451    0.1861    0.2039
Li    Li595        0.6967    0.1445    0.4319
Li    Li596        0.5414    0.1672    0.3221
Li    Li597        0.6679    0.1084    0.4371
Li    Li598        0.7015    0.1375    0.9344
Li    Li599        0.5488    0.1647    0.8243
Li    Li600        0.6682    0.1069    0.9473
Li    Li601        0.6787    0.2349    0.0686
Li    Li602        0.6995    0.2376    0.1760
Li    Li603        0.6633    0.2431    0.8223
Li    Li604        0.7206    0.2441    0.9283
Li    Li605        0.7070    0.2172    0.8038
Li    Li606        0.5714    0.3685    0.1772
Li    Li607        0.6963    0.3348    0.1778
Li    Li608        0.5426    0.3938    0.1913
Li    Li609        0.7128    0.3106    0.0595
Li    Li610        0.6690    0.2970    0.2006
Li    Li611        0.5302    0.3573    0.8188
Li    Li612        0.5785    0.3891    0.7986
Li    Li613        0.5790    0.4651    0.1739
Li    Li614        0.5541    0.4653    0.0736
Li    Li615        0.5365    0.4902    0.1907
Li    Li616        0.5752    0.4837    0.0565
Li    Li617        0.5878    0.4609    0.4285
Li    Li618        0.5411    0.4560    0.5721
Li    Li619        0.5563    0.4706    0.6850
Li    Li620        0.5787    0.4897    0.5551
Li    Li621        0.5790    0.4896    0.8106
Li    Li622        0.6645    0.5397    0.0709
Li    Li623        0.5936    0.5598    0.1792
Li    Li624        0.6977    0.5366    0.1794
Li    Li625        0.5426    0.5931    0.2011
Li    Li626        0.6646    0.5072    0.1996
Li    Li627        0.5859    0.5776    0.4257
Li    Li628        0.5485    0.5642    0.3161
Li    Li629        0.5466    0.5897    0.4500
Li    Li630        0.7029    0.5099    0.3031
Li    Li631        0.5978    0.5906    0.2977
Li    Li632        0.5819    0.5586    0.6744
Li    Li633        0.5472    0.5618    0.5751
Li    Li634        0.5885    0.5949    0.5617
Li    Li635        0.6644    0.5067    0.7000
Li    Li636        0.5820    0.5562    0.9287
Li    Li637        0.5465    0.5849    0.9499
Li    Li638        0.6734    0.6430    0.0663
Li    Li639        0.7128    0.6299    0.1818
Li    Li640        0.5775    0.6902    0.0574
Li    Li641        0.6669    0.6030    0.1991
Li    Li642        0.6573    0.6402    0.3182
Li    Li643        0.5753    0.6611    0.4389
Li    Li644        0.7058    0.6380    0.4262
Li    Li645        0.5438    0.6601    0.3193
Li    Li646        0.5359    0.6876    0.4443
Li    Li647        0.6972    0.6066    0.3045
Li    Li648        0.5864    0.6942    0.3055
Li    Li649        0.6527    0.6484    0.5566
Li    Li650        0.7074    0.6411    0.6754
Li    Li651        0.5478    0.6618    0.5719
Li    Li652        0.5480    0.6853    0.7001
Li    Li653        0.6970    0.6172    0.5490
Li    Li654        0.5708    0.6917    0.5602
Li    Li655        0.6990    0.6372    0.9408
Li    Li656        0.5463    0.6853    0.9554
Li    Li657        0.6738    0.7357    0.0712
Li    Li658        0.7103    0.7386    0.1822
Li    Li659        0.7051    0.7291    0.0429
Li    Li660        0.6709    0.7391    0.3229
Li    Li661        0.5828    0.7639    0.4276
Li    Li662        0.7040    0.7335    0.4223
Li    Li663        0.5550    0.7600    0.3141
Li    Li664        0.5512    0.7973    0.4425
Li    Li665        0.6967    0.7209    0.3033
Li    Li666        0.6613    0.7166    0.4522
Li    Li667        0.5718    0.7625    0.6746
Li    Li668        0.7009    0.7412    0.6777
Li    Li669        0.5467    0.7641    0.5706
Li    Li670        0.5698    0.7554    0.9316
Li    Li671        0.5505    0.7587    0.8231
Li    Li672        0.5460    0.7863    0.9571
Li    Li673        0.6701    0.7107    0.9648
Li    Li674        0.6720    0.8397    0.3117
Li    Li675        0.5441    0.8927    0.4423
Li    Li676        0.5776    0.8869    0.3119
Li    Li677        0.6818    0.8065    0.4473
Li    Li678        0.6733    0.8370    0.5696
Li    Li679        0.5863    0.8599    0.6815
Li    Li680        0.5513    0.8678    0.5655
Li    Li681        0.5501    0.8833    0.7169
Li    Li682        0.7064    0.8177    0.5556
Li    Li683        0.6589    0.8451    0.8127
Li    Li684        0.5491    0.8927    0.9418
Li    Li685        0.7055    0.8130    0.8050
Li    Li686        0.5807    0.8835    0.8143
Li    Li687        0.5845    0.9898    0.0581
Li    Li688        0.6704    0.9379    0.3211
Li    Li689        0.5434    0.9718    0.3204
Li    Li690        0.7063    0.9121    0.3091
Li    Li691        0.5805    0.9928    0.3076
Li    Li692        0.6724    0.9361    0.5714
Li    Li693        0.5547    0.9587    0.6785
Li    Li694        0.5491    0.9842    0.9583
Li    Li695        0.5756    0.9872    0.8080
Li    Li696        0.9481    0.0381    0.1750
Li    Li697        0.7953    0.0580    0.0650
Li    Li698        0.9107    0.0463    0.3107
Li    Li699        0.7889    0.0586    0.3168
Li    Li700        0.9553    0.0098    0.2954
Li    Li701        0.8246    0.0858    0.3191
Li    Li702        0.9223    0.0126    0.6951
Li    Li703        0.9351    0.0228    0.8205
Li    Li704        0.8263    0.0665    0.9256
Li    Li705        0.9588    0.0339    0.9288
Li    Li706        0.9604    0.0156    0.7982
Li    Li707        0.9176    0.0082    0.9461
Li    Li708        0.8347    0.1636    0.1759
Li    Li709        0.9580    0.1387    0.1742
Li    Li710        0.8000    0.1637    0.0716
Li    Li711        0.8317    0.1914    0.0564
Li    Li712        0.9267    0.1201    0.1948
Li    Li713        0.8297    0.1664    0.4282
Li    Li714        0.9549    0.1341    0.4008
Li    Li715        0.7844    0.1626    0.3200
Li    Li716        0.7949    0.1914    0.4443
Li    Li717        0.9308    0.1152    0.4391
Li    Li718        0.8341    0.1675    0.9315
Li    Li719        0.8076    0.1876    0.9437
Li    Li720        0.8322    0.1899    0.8078
Li    Li721        0.8253    0.2673    0.1800
Li    Li722        0.9519    0.2366    0.1750
Li    Li723        0.9468    0.2163    0.0565
Li    Li724        0.9341    0.2025    0.1933
Li    Li725        0.9609    0.2084    0.3122
Li    Li726        0.8306    0.2860    0.3052
Li    Li727        0.9515    0.2131    0.5514
Li    Li728        0.9535    0.2407    0.9234
Li    Li729        0.9520    0.2099    0.8005
Li    Li730        0.9260    0.3349    0.0718
Li    Li731        0.8292    0.3630    0.1777
Li    Li732        0.9530    0.3289    0.1733
Li    Li733        0.7940    0.3831    0.1851
Li    Li734        0.9532    0.3136    0.0459
Li    Li735        0.8366    0.3878    0.0567
Li    Li736        0.9099    0.3145    0.1934
Li    Li737        0.8145    0.3683    0.6794
Li    Li738        0.9597    0.3441    0.6787
Li    Li739        0.7888    0.3973    0.6907
Li    Li740        0.8262    0.3479    0.9255
Li    Li741        0.9544    0.3401    0.9246
Li    Li742        0.7954    0.3749    0.8301
Li    Li743        0.8356    0.3873    0.8033
Li    Li744        0.9235    0.3045    0.9236
Li    Li745        0.9251    0.4360    0.0679
Li    Li746        0.7973    0.4612    0.0687
Li    Li747        0.8241    0.4778    0.0453
Li    Li748        0.9122    0.4407    0.3238
Li    Li749        0.9550    0.4124    0.3016
Li    Li750        0.8261    0.4624    0.6701
Li    Li751        0.9186    0.4113    0.6992
Li    Li752        0.9247    0.4306    0.8145
Li    Li753        0.8286    0.4637    0.9272
Li    Li754        0.9587    0.4373    0.9297
Li    Li755        0.7929    0.4706    0.8155
Li    Li756        0.7977    0.4882    0.9513
Li    Li757        0.9630    0.4042    0.8004
Li    Li758        0.9236    0.4178    0.9535
Li    Li759        0.8299    0.5595    0.4267
Li    Li760        0.8272    0.5807    0.2995
Li    Li761        0.9323    0.5260    0.4325
Li    Li762        0.9483    0.5111    0.5515
Li    Li763        0.9217    0.5127    0.6951
Li    Li764        0.8405    0.5566    0.9403
Li    Li765        0.9550    0.5385    0.9263
Li    Li766        0.7932    0.5831    0.9490
Li    Li767        0.9518    0.5179    0.8006
Li    Li768        0.9097    0.5105    0.9401
Li    Li769        0.8295    0.6635    0.1785
Li    Li770        0.9532    0.6334    0.1782
Li    Li771        0.9199    0.6147    0.2080
Li    Li772        0.8259    0.6504    0.4280
Li    Li773        0.9505    0.6347    0.4312
Li    Li774        0.8068    0.6816    0.4470
Li    Li775        0.9486    0.6175    0.3083
Li    Li776        0.8282    0.6816    0.2964
Li    Li777        0.9119    0.6151    0.4457
Li    Li778        0.8041    0.6491    0.5678
Li    Li779        0.7944    0.6888    0.6942
Li    Li780        0.8471    0.6937    0.5612
Li    Li781        0.9575    0.6323    0.9360
Li    Li782        0.7934    0.6603    0.8145
Li    Li783        0.9513    0.6131    0.8136
Li    Li784        0.8290    0.6842    0.7920
Li    Li785        0.9198    0.6140    0.9382
Li    Li786        0.8345    0.7607    0.1804
Li    Li787        0.9557    0.7315    0.1775
Li    Li788        0.9498    0.7140    0.0556
Li    Li789        0.9307    0.7071    0.1843
Li    Li790        0.9591    0.7372    0.4245
Li    Li791        0.7968    0.7621    0.3210
Li    Li792        0.8177    0.7780    0.3128
Li    Li793        0.9259    0.7416    0.5573
Li    Li794        0.9557    0.7395    0.6774
Li    Li795        0.8401    0.7912    0.5519
Li    Li796        0.9180    0.7159    0.6808
Li    Li797        0.9690    0.7452    0.9289
Li    Li798        0.9201    0.8392    0.0609
Li    Li799        0.8326    0.8564    0.1720
Li    Li800        0.9554    0.8382    0.1899
Li    Li801        0.9564    0.8111    0.0534
Li    Li802        0.9265    0.8178    0.1937
Li    Li803        0.7906    0.8525    0.8174
Li    Li804        0.7914    0.9669    0.3235
Li    Li805        0.7880    0.9927    0.9426
Li    Li806        0.1213    0.0344    0.3242
Li    Li807        0.1103    0.0734    0.4350
Li    Li808        0.2450    0.0104    0.3015
Li    Li809        0.1044    0.0847    0.2792
Li    Li810        0.0101    0.0599    0.8266
Li    Li811        0.1201    0.0803    0.8001
Li    Li812        0.2401    0.1373    0.1855
Li    Li813        0.2674    0.1175    0.0442
Li    Li814        0.1209    0.1778    0.0597
Li    Li815        0.2402    0.1322    0.4412
Li    Li816        0.9975    0.1543    0.3022
Li    Li817        0.1276    0.1806    0.2888
Li    Li818        0.1379    0.1366    0.5484
Li    Li819        0.0061    0.1692    0.5922
Li    Li820        0.1357    0.1355    0.8314
Li    Li821        0.2614    0.1207    0.7911
Li    Li822        0.1113    0.2887    0.0577
Li    Li823        0.1241    0.2680    0.4258
Li    Li824        0.2523    0.2446    0.4295
Li    Li825        0.9987    0.2635    0.5702
Li    Li826        0.1277    0.2671    0.9204
Li    Li827        0.1219    0.1987    0.9385
Li    Li828        0.2461    0.3366    0.1766
Li    Li829        0.1162    0.3840    0.0395
Li    Li830        0.1365    0.3335    0.3473
Li    Li831        0.2433    0.3142    0.3129
Li    Li832        0.1134    0.3828    0.3101
Li    Li833        0.2480    0.3425    0.6855
Li    Li834        0.0087    0.3851    0.7106
Li    Li835        0.1367    0.3410    0.8133
Li    Li836        0.0116    0.3609    0.8242
Li    Li837        0.0052    0.3872    0.9476
Li    Li838        0.1228    0.3205    0.9280
Li    Li839        0.0060    0.4678    0.3034
Li    Li840        0.0125    0.4740    0.4611
Li    Li841        0.1259    0.4987    0.3124
Li    Li842        0.2423    0.4160    0.5588
Li    Li843        0.1331    0.4104    0.6862
Li    Li844        0.1306    0.4157    0.9476
Li    Li845        0.0937    0.5286    0.3406
Li    Li846        0.2471    0.5365    0.4330
Li    Li847        0.0152    0.5889    0.4439
Li    Li848        0.1367    0.5086    0.4365
Li    Li849        0.2365    0.5360    0.6841
Li    Li850        0.2445    0.5376    0.9249
Li    Li851        0.1332    0.6334    0.0854
Li    Li852        0.1165    0.6872    0.1690
Li    Li853        0.2429    0.6348    0.1849
Li    Li854        0.1340    0.6350    0.3184
Li    Li855        0.0229    0.6586    0.3161
Li    Li856        0.9830    0.6891    0.4316
Li    Li857        0.2299    0.6249    0.5674
Li    Li858        0.1318    0.6341    0.8131
Li    Li859        0.2438    0.6117    0.7887
Li    Li860        0.1017    0.6928    0.8004
Li    Li861        0.1263    0.6154    0.9386
Li    Li862        0.1137    0.7609    0.1871
Li    Li863        0.0203    0.7942    0.1897
Li    Li864        0.1320    0.7165    0.1848
Li    Li865        0.1335    0.7405    0.5580
Li    Li866        0.0061    0.7797    0.6863
Li    Li867        0.1198    0.7929    0.5624
Li    Li868        0.1270    0.7156    0.6903
Li    Li869        0.2325    0.7395    0.9282
Li    Li870        0.0131    0.7884    0.9427
Li    Li871        0.0035    0.8634    0.0798
Li    Li872        0.0046    0.8884    0.1844
Li    Li873        0.0960    0.8122    0.1994
Li    Li874        0.2416    0.8234    0.4185
Li    Li875        0.0101    0.8565    0.3150
Li    Li876        0.1149    0.8911    0.3107
Li    Li877        0.1287    0.8313    0.5660
Li    Li878        0.2405    0.9215    0.1684
Li    Li879        0.0021    0.9896    0.1933
Li    Li880        0.1388    0.9421    0.3194
Li    Li881        0.1205    0.9834    0.3055
Li    Li882        0.1188    0.9101    0.4540
Li    Li883        0.0126    0.9606    0.5648
Li    Li884        0.1177    0.9928    0.5593
Li    Li885        0.1122    0.9901    0.8127
Li    Li886        0.2683    0.0925    0.1877
Li    Li887        0.3710    0.0381    0.3260
Li    Li888        0.2601    0.0890    0.3298
Li    Li889        0.4992    0.0110    0.3163
Li    Li890        0.3858    0.0087    0.4347
Li    Li891        0.4941    0.0185    0.5704
Li    Li892        0.2645    0.0854    0.8299
Li    Li893        0.4904    0.1431    0.1867
Li    Li894        0.2549    0.1797    0.1848
Li    Li895        0.3894    0.1193    0.1789
Li    Li896        0.2388    0.1561    0.3099
Li    Li897        0.3707    0.1581    0.6741
Li    Li898        0.2598    0.1822    0.7236
Li    Li899        0.2645    0.1604    0.8053
Li    Li900        0.3710    0.1819    0.8057
Li    Li901        0.3705    0.2585    0.1651
Li    Li902        0.3936    0.2841    0.0466
Li    Li903        0.3763    0.2147    0.6963
Li    Li904        0.3790    0.2329    0.8162
Li    Li905        0.4959    0.2403    0.9330
Li    Li906        0.2620    0.2899    0.9461
Li    Li907        0.3577    0.2976    0.8050
Li    Li908        0.3837    0.3416    0.0588
Li    Li909        0.3692    0.3693    0.1697
Li    Li910        0.2598    0.3617    0.0707
Li    Li911        0.2620    0.3874    0.1956
Li    Li912        0.3793    0.3356    0.5717
Li    Li913        0.3672    0.3575    0.6934
Li    Li914        0.5105    0.3329    0.6852
Li    Li915        0.3752    0.3056    0.9331
Li    Li916        0.3887    0.4420    0.0649
Li    Li917        0.5014    0.4382    0.1839
Li    Li918        0.2603    0.4720    0.0727
Li    Li919        0.2581    0.4804    0.1919
Li    Li920        0.3543    0.4518    0.4348
Li    Li921        0.2555    0.4795    0.6995
Li    Li922        0.3810    0.4144    0.6795
Li    Li923        0.3919    0.4490    0.8009
Li    Li924        0.2554    0.4647    0.8115
Li    Li925        0.2496    0.4844    0.9514
Li    Li926        0.4896    0.5442    0.1972
Li    Li927        0.2728    0.5969    0.1884
Li    Li928        0.4739    0.5054    0.0513
Li    Li929        0.3895    0.5910    0.0623
Li    Li930        0.3560    0.5982    0.3292
Li    Li931        0.3832    0.5061    0.4360
Li    Li932        0.3835    0.5364    0.5690
Li    Li933        0.4969    0.5386    0.6770
Li    Li934        0.2402    0.5545    0.5742
Li    Li935        0.3694    0.5948    0.5445
Li    Li936        0.4975    0.5225    0.9247
Li    Li937        0.4990    0.4976    0.8401
Li    Li938        0.3892    0.6414    0.0689
Li    Li939        0.2666    0.6503    0.0674
Li    Li940        0.2572    0.6777    0.2081
Li    Li941        0.4898    0.6387    0.0763
Li    Li942        0.3649    0.6881    0.0601
Li    Li943        0.4766    0.6028    0.3108
Li    Li944        0.3874    0.6389    0.5663
Li    Li945        0.3810    0.6105    0.7091
Li    Li946        0.3830    0.6289    0.8381
Li    Li947        0.2456    0.6980    0.9416
Li    Li948        0.4952    0.6187    0.8257
Li    Li949        0.3765    0.7394    0.0731
Li    Li950        0.3584    0.7637    0.1789
Li    Li951        0.4918    0.7087    0.0584
Li    Li952        0.3660    0.7823    0.0530
Li    Li953        0.3657    0.7697    0.4167
Li    Li954        0.4889    0.7418    0.4302
Li    Li955        0.2612    0.7644    0.3181
Li    Li956        0.4791    0.7501    0.6983
Li    Li957        0.2537    0.7615    0.5587
Li    Li958        0.5106    0.7040    0.5570
Li    Li959        0.3754    0.7935    0.5503
Li    Li960        0.3782    0.7168    0.6903
Li    Li961        0.3688    0.7608    0.9189
Li    Li962        0.3620    0.7735    0.7917
Li    Li963        0.3940    0.7249    0.9441
Li    Li964        0.3793    0.8317    0.0719
Li    Li965        0.3705    0.8635    0.4166
Li    Li966        0.4915    0.8361    0.4234
Li    Li967        0.3836    0.8095    0.4428
Li    Li968        0.4983    0.8377    0.6860
Li    Li969        0.3621    0.9647    0.1977
Li    Li970        0.2595    0.9833    0.2167
Li    Li971        0.3832    0.9178    0.2229
Li    Li972        0.3480    0.9536    0.4494
Li    Li973        0.2674    0.9871    0.4371
Li    Li974        0.4965    0.9149    0.3065
Li    Li975        0.3576    0.9131    0.4408
Li    Li976        0.3981    0.9491    0.5657
Li    Li977        0.4935    0.9328    0.6891
Li    Li978        0.5126    0.9069    0.5522
Li    Li979        0.6182    0.0641    0.1743
Li    Li980        0.7323    0.9975    0.0695
Li    Li981        0.6356    0.0874    0.0402
Li    Li982        0.6259    0.0193    0.2243
Li    Li983        0.5105    0.0830    0.7076
Li    Li984        0.6173    0.0592    0.9480
Li    Li985        0.6307    0.0149    0.9504
Li    Li986        0.6291    0.1363    0.0679
Li    Li987        0.6247    0.1569    0.1768
Li    Li988        0.7342    0.1406    0.1895
Li    Li989        0.5061    0.1722    0.0626
Li    Li990        0.5219    0.2011    0.1892
Li    Li991        0.6121    0.1926    0.0589
Li    Li992        0.7459    0.1414    0.4374
Li    Li993        0.5187    0.1810    0.3169
Li    Li994        0.5232    0.1523    0.8092
Li    Li995        0.6442    0.1063    0.9385
Li    Li996        0.6476    0.2605    0.1767
Li    Li997        0.4951    0.2610    0.5718
Li    Li998        0.6247    0.2317    0.8335
Li    Li999        0.7479    0.2088    0.8021
Li    Li1000        0.6190    0.3649    0.1733
Li    Li1001        0.5017    0.3864    0.1912
Li    Li1002        0.6293    0.3059    0.1944
Li    Li1003        0.5139    0.3658    0.7998
Li    Li1004        0.6282    0.4640    0.1784
Li    Li1005        0.5993    0.4737    0.0660
Li    Li1006        0.6074    0.4150    0.4473
Li    Li1007        0.5085    0.4880    0.6975
Li    Li1008        0.6091    0.4955    0.8176
Li    Li1009        0.6337    0.5401    0.0730
Li    Li1010        0.7441    0.5379    0.1733
Li    Li1011        0.5055    0.5906    0.1951
Li    Li1012        0.5215    0.5745    0.2982
Li    Li1013        0.7432    0.5169    0.2950
Li    Li1014        0.6264    0.5954    0.3119
Li    Li1015        0.5993    0.5468    0.6926
Li    Li1016        0.5129    0.5604    0.5722
Li    Li1017        0.6121    0.5620    0.9298
Li    Li1018        0.4970    0.5793    0.9460
Li    Li1019        0.6325    0.5078    0.9395
Li    Li1020        0.6400    0.6483    0.0660
Li    Li1021        0.5071    0.6576    0.3250
Li    Li1022        0.4944    0.6948    0.4410
Li    Li1023        0.6299    0.6304    0.5684
Li    Li1024        0.7422    0.6428    0.6769
Li    Li1025        0.5119    0.6908    0.6856
Li    Li1026        0.7466    0.6367    0.9192
Li    Li1027        0.5086    0.6781    0.9530
Li    Li1028        0.7494    0.5966    0.8115
Li    Li1029        0.5964    0.7303    0.0613
Li    Li1030        0.7465    0.7257    0.1751
Li    Li1031        0.5084    0.7659    0.3226
Li    Li1032        0.5030    0.7964    0.4378
Li    Li1033        0.6200    0.7866    0.3144
Li    Li1034        0.7373    0.7408    0.6940
Li    Li1035        0.6238    0.7104    0.6895
Li    Li1036        0.5127    0.7520    0.8102
Li    Li1037        0.5087    0.7611    0.9504
Li    Li1038        0.5035    0.8859    0.4458
Li    Li1039        0.6092    0.8757    0.2730
Li    Li1040        0.6342    0.8560    0.5461
Li    Li1041        0.7488    0.8131    0.5587
Li    Li1042        0.5109    0.8547    0.8225
Li    Li1043        0.5040    0.8923    0.9365
Li    Li1044        0.7683    0.8115    0.7944
Li    Li1045        0.6197    0.8901    0.8203
Li    Li1046        0.6217    0.9854    0.0442
Li    Li1047        0.7605    0.9061    0.2996
Li    Li1048        0.6367    0.9299    0.5719
Li    Li1049        0.6280    0.9674    0.6691
Li    Li1050        0.5033    0.9897    0.6934
Li    Li1051        0.7355    0.9082    0.5643
Li    Li1052        0.5278    0.0129    0.9257
Li    Li1053        0.9938    0.0312    0.1818
Li    Li1054        0.8635    0.0459    0.3134
Li    Li1055        0.7306    0.0578    0.2992
Li    Li1056        0.8518    0.0166    0.6949
Li    Li1057        0.8642    0.0734    0.9231
Li    Li1058        0.0122    0.0170    0.7938
Li    Li1059        0.8895    0.1473    0.1987
Li    Li1060        0.7647    0.1558    0.0552
Li    Li1061        0.8746    0.1895    0.0629
Li    Li1062        0.8817    0.1392    0.3194
Li    Li1063        0.7474    0.1684    0.3170
Li    Li1064        0.9885    0.1047    0.3223
Li    Li1065        0.7728    0.1962    0.9411
Li    Li1066        0.8730    0.2695    0.1677
Li    Li1067        0.8855    0.2140    0.1917
Li    Li1068        0.9812    0.2154    0.2993
Li    Li1069        0.8810    0.2375    0.8265
Li    Li1070        0.9737    0.2475    0.9431
Li    Li1071        0.8692    0.3308    0.0737
Li    Li1072        0.8638    0.3735    0.1629
Li    Li1073        0.9811    0.3375    0.1774
Li    Li1074        0.7727    0.3997    0.1889
Li    Li1075        0.8714    0.3832    0.0631
Li    Li1076        0.8627    0.3179    0.1845
Li    Li1077        0.8546    0.3638    0.6785
Li    Li1078        0.9872    0.3422    0.9312
Li    Li1079        0.7657    0.3850    0.8174
Li    Li1080        0.8834    0.4417    0.0582
Li    Li1081        0.7593    0.4620    0.0740
Li    Li1082        0.8660    0.4815    0.0281
Li    Li1083        0.8591    0.4386    0.3312
Li    Li1084        0.9977    0.4117    0.3196
Li    Li1085        0.7627    0.4862    0.7143
Li    Li1086        0.8688    0.4123    0.6968
Li    Li1087        0.9953    0.4355    0.9423
Li    Li1088        0.7587    0.4880    0.9484
Li    Li1089        0.9984    0.4146    0.8081
Li    Li1090        0.8563    0.4092    0.9532
Li    Li1091        0.8607    0.5490    0.1891
Li    Li1092        0.8676    0.5821    0.3056
Li    Li1093        0.8860    0.5135    0.6995
Li    Li1094        0.9884    0.5445    0.9364
Li    Li1095        0.9884    0.5141    0.8049
Li    Li1096        0.8863    0.6384    0.0574
Li    Li1097        0.8632    0.6660    0.1801
Li    Li1098        0.7602    0.6902    0.1923
Li    Li1099        0.9854    0.6124    0.0545
Li    Li1100        0.8954    0.6060    0.1830
Li    Li1101        0.9899    0.6149    0.3115
Li    Li1102        0.8851    0.6211    0.4541
Li    Li1103        0.8817    0.6330    0.8193
Li    Li1104        0.9809    0.6234    0.9378
Li    Li1105        0.9896    0.6208    0.8258
Li    Li1106        0.8838    0.6245    0.9222
Li    Li1107        0.8668    0.7584    0.1783
Li    Li1108        0.8633    0.7095    0.1867
Li    Li1109        0.8736    0.7345    0.3219
Li    Li1110        0.0185    0.7336    0.4328
Li    Li1111        0.7613    0.7742    0.3083
Li    Li1112        0.8878    0.7302    0.5598
Li    Li1113        0.9918    0.7416    0.9415
Li    Li1114        0.0022    0.8340    0.1814
Li    Li1115        0.8794    0.8182    0.2188
Li    Li1116        0.7567    0.9698    0.3275
Li    Li1117        0.8682    0.9886    0.7965
Li    Li1118        0.2120    0.0429    0.2303
Li    Li1119        0.0792    0.0560    0.4845
Li    Li1120        0.1609    0.0513    0.2477
Li    Li1121        0.2040    0.0454    0.4807
Li    Li1122        0.0265    0.0921    0.3761
Li    Li1123        0.1661    0.9977    0.3909
Li    Li1124        0.0793    0.0824    0.3621
Li    Li1125        0.0917    0.0980    0.6152
Li    Li1126        0.0786    0.0953    0.8545
Li    Li1127        0.1996    0.1400    0.2327
Li    Li1128        0.0763    0.1462    0.4755
Li    Li1129        0.0476    0.1499    0.2702
Li    Li1130        0.2011    0.0958    0.3632
Li    Li1131        0.1677    0.1051    0.3894
Li    Li1132        0.0826    0.2045    0.3558
Li    Li1133        0.0392    0.1617    0.5160
Li    Li1134        0.2062    0.1146    0.6072
Li    Li1135        0.0919    0.1463    0.9753
Li    Li1136        0.1731    0.2472    0.0074
Li    Li1137        0.2065    0.2055    0.3674
Li    Li1138        0.0855    0.2973    0.3616
Li    Li1139        0.1672    0.2569    0.5101
Li    Li1140        0.0438    0.2494    0.5220
Li    Li1141        0.2066    0.2369    0.7315
Li    Li1142        0.0432    0.3030    0.6448
Li    Li1143        0.1620    0.1930    0.6315
Li    Li1144        0.0934    0.3019    0.6191
Li    Li1145        0.0798    0.2519    0.9812
Li    Li1146        0.2066    0.1947    0.8754
Li    Li1147        0.1709    0.1950    0.8972
Li    Li1148        0.0428    0.3961    0.1528
Li    Li1149        0.1701    0.3417    0.2624
Li    Li1150        0.0405    0.3585    0.2616
Li    Li1151        0.1967    0.3139    0.3616
Li    Li1152        0.0521    0.4079    0.3940
Li    Li1153        0.2030    0.3108    0.6407
Li    Li1154        0.0790    0.3628    0.9757
Li    Li1155        0.1708    0.3493    0.7539
Li    Li1156        0.2011    0.3527    0.9874
Li    Li1157        0.2063    0.3049    0.8604
Li    Li1158        0.0874    0.3948    0.8586
Li    Li1159        0.1989    0.3994    0.1105
Li    Li1160        0.0444    0.4527    0.2656
Li    Li1161        0.2110    0.4533    0.4994
Li    Li1162        0.2140    0.4051    0.3577
Li    Li1163        0.1684    0.4071    0.3898
Li    Li1164        0.0730    0.5022    0.3592
Li    Li1165        0.2035    0.4367    0.7346
Li    Li1166        0.1659    0.4098    0.6410
Li    Li1167        0.0858    0.4623    0.9847
Li    Li1168        0.0413    0.4576    0.7620
Li    Li1169        0.2079    0.4499    0.9953
Li    Li1170        0.0837    0.4937    0.8618
Li    Li1171        0.1750    0.5491    0.2664
Li    Li1172        0.0425    0.5518    0.2549
Li    Li1173        0.2049    0.5050    0.3645
Li    Li1174        0.0860    0.6055    0.3471
Li    Li1175        0.0371    0.5446    0.5221
Li    Li1176        0.1986    0.5123    0.6170
Li    Li1177        0.0494    0.5853    0.6518
Li    Li1178        0.1655    0.4998    0.6446
Li    Li1179        0.1661    0.5533    0.7518
Li    Li1180        0.2058    0.5111    0.8664
Li    Li1181        0.0464    0.5937    0.8872
Li    Li1182        0.0771    0.6564    0.2365
Li    Li1183        0.1658    0.6566    0.0303
Li    Li1184        0.0438    0.6590    0.0195
Li    Li1185        0.2149    0.6070    0.1175
Li    Li1186        0.0454    0.7085    0.1297
Li    Li1187        0.1702    0.6034    0.1444
Li    Li1188        0.0826    0.6608    0.4805
Li    Li1189        0.2038    0.6534    0.4711
Li    Li1190        0.2068    0.5973    0.3603
Li    Li1191        0.1668    0.6081    0.3981
Li    Li1192        0.1735    0.6479    0.5215
Li    Li1193        0.0475    0.7017    0.6484
Li    Li1194        0.0860    0.6937    0.6147
Li    Li1195        0.0731    0.6562    0.9903
Li    Li1196        0.2079    0.6395    0.9867
Li    Li1197        0.1682    0.7375    0.0218
Li    Li1198        0.2106    0.7464    0.2307
Li    Li1199        0.0712    0.7968    0.1291
Li    Li1200        0.0492    0.7553    0.2604
Li    Li1201        0.2005    0.7001    0.3718
Li    Li1202        0.0795    0.7965    0.3635
Li    Li1203        0.0912    0.7602    0.7432
Li    Li1204        0.1680    0.7468    0.5068
Li    Li1205        0.0392    0.7923    0.6386
Li    Li1206        0.1640    0.7076    0.6371
Li    Li1207        0.0709    0.7961    0.6163
Li    Li1208        0.0827    0.7950    0.8576
Li    Li1209        0.0523    0.8901    0.1372
Li    Li1210        0.0784    0.8935    0.1098
Li    Li1211        0.0443    0.8566    0.2653
Li    Li1212        0.2084    0.8473    0.4864
Li    Li1213        0.1684    0.8131    0.3932
Li    Li1214        0.1770    0.8098    0.6258
Li    Li1215        0.1649    0.8963    0.1572
Li    Li1216        0.0879    0.9511    0.5132
Li    Li1217        0.2102    0.9131    0.3615
Li    Li1218        0.1787    0.9146    0.3913
Li    Li1219        0.1642    0.9467    0.5207
Li    Li1220        0.0802    0.9874    0.6077
Li    Li1221        0.0469    0.9565    0.7689
Li    Li1222        0.3277    0.0572    0.4824
Li    Li1223        0.4583    0.0508    0.4888
Li    Li1224        0.4793    0.0431    0.0000
Li    Li1225        0.2893    0.1529    0.0154
Li    Li1226        0.3040    0.1941    0.1487
Li    Li1227        0.3238    0.1891    0.1155
Li    Li1228        0.4112    0.1559    0.7553
Li    Li1229        0.2924    0.2057    0.8891
Li    Li1230        0.3444    0.2035    0.8743
Li    Li1231        0.4159    0.2482    0.0063
Li    Li1232        0.2946    0.2595    0.0150
Li    Li1233        0.4648    0.2008    0.1207
Li    Li1234        0.4193    0.2116    0.1386
Li    Li1235        0.3142    0.2860    0.1091
Li    Li1236        0.4091    0.2481    0.2590
Li    Li1237        0.4562    0.2414    0.7374
Li    Li1238        0.3342    0.2541    0.9802
Li    Li1239        0.2871    0.2392    0.7729
Li    Li1240        0.4032    0.2127    0.8756
Li    Li1241        0.3296    0.2957    0.8599
Li    Li1242        0.3369    0.3559    0.2302
Li    Li1243        0.4178    0.3561    0.0194
Li    Li1244        0.2846    0.3470    0.0024
Li    Li1245        0.4612    0.3454    0.2298
Li    Li1246        0.4583    0.2972    0.1089
Li    Li1247        0.3065    0.4142    0.1265
Li    Li1248        0.4063    0.3005    0.1240
Li    Li1249        0.3338    0.3952    0.1096
Li    Li1250        0.4196    0.3517    0.2580
Li    Li1251        0.4207    0.3410    0.5131
Li    Li1252        0.4598    0.3446    0.7375
Li    Li1253        0.4563    0.3120    0.6094
Li    Li1254        0.3010    0.3935    0.6380
Li    Li1255        0.2940    0.3459    0.7603
Li    Li1256        0.4184    0.3077    0.8908
Li    Li1257        0.2862    0.4522    0.9990
Li    Li1258        0.4546    0.4521    0.2354
Li    Li1259        0.4583    0.4152    0.1028
Li    Li1260        0.3382    0.5018    0.1196
Li    Li1261        0.4189    0.4439    0.2618
Li    Li1262        0.3315    0.4525    0.7283
Li    Li1263        0.2919    0.4963    0.6392
Li    Li1264        0.3265    0.4660    0.9803
Li    Li1265        0.3292    0.5508    0.2369
Li    Li1266        0.4626    0.5501    0.2379
Li    Li1267        0.4504    0.4981    0.1051
Li    Li1268        0.4195    0.5046    0.1394
Li    Li1269        0.2963    0.5976    0.3784
Li    Li1270        0.2980    0.5578    0.4835
Li    Li1271        0.3334    0.5419    0.9876
Li    Li1272        0.4227    0.5466    0.7741
Li    Li1273        0.2988    0.5569    0.7721
Li    Li1274        0.2907    0.6025    0.8903
Li    Li1275        0.3102    0.6631    0.2534
Li    Li1276        0.4555    0.6432    0.2354
Li    Li1277        0.4546    0.6219    0.0927
Li    Li1278        0.2905    0.6998    0.1451
Li    Li1279        0.3301    0.7017    0.1134
Li    Li1280        0.3206    0.6569    0.4861
Li    Li1281        0.4580    0.6407    0.4826
Li    Li1282        0.2832    0.6916    0.3817
Li    Li1283        0.3449    0.6507    0.7438
Li    Li1284        0.2833    0.6530    0.5099
Li    Li1285        0.4565    0.6100    0.6038
Li    Li1286        0.3063    0.6503    0.7664
Li    Li1287        0.4569    0.6459    0.9861
Li    Li1288        0.3258    0.6861    0.8527
Li    Li1289        0.3231    0.7461    0.2354
Li    Li1290        0.4302    0.7471    0.0142
Li    Li1291        0.4154    0.7453    0.2633
Li    Li1292        0.2923    0.7547    0.2702
Li    Li1293        0.2840    0.7954    0.3957
Li    Li1294        0.2939    0.7537    0.5118
Li    Li1295        0.4632    0.7153    0.6161
Li    Li1296        0.4522    0.7358    0.9796
Li    Li1297        0.3228    0.7922    0.8544
Li    Li1298        0.2945    0.8481    0.0216
Li    Li1299        0.4516    0.8440    0.4878
Li    Li1300        0.4562    0.8012    0.3660
Li    Li1301        0.4191    0.8355    0.5215
Li    Li1302        0.2954    0.8585    0.5207
Li    Li1303        0.3382    0.8971    0.6146
Li    Li1304        0.4689    0.7974    0.8654
Li    Li1305        0.3265    0.9436    0.2369
Li    Li1306        0.4115    0.9386    0.2548
Li    Li1307        0.4588    0.9030    0.3549
Li    Li1308        0.2968    0.9935    0.3902
Li    Li1309        0.3309    0.9849    0.3576
Li    Li1310        0.4172    0.9376    0.5199
Li    Li1311        0.5369    0.0511    0.0105
Li    Li1312        0.7023    0.0367    0.2292
Li    Li1313        0.7200    0.0055    0.1199
Li    Li1314        0.5397    0.1069    0.1356
Li    Li1315        0.5355    0.1010    0.6477
Li    Li1316        0.5741    0.0583    0.9771
Li    Li1317        0.5504    0.0670    0.7654
Li    Li1318        0.5794    0.0995    0.8541
Li    Li1319        0.5804    0.1493    0.2336
Li    Li1320        0.7089    0.0984    0.1091
Li    Li1321        0.6651    0.0987    0.1411
Li    Li1322        0.5349    0.1520    0.2559
Li    Li1323        0.7083    0.1455    0.4908
Li    Li1324        0.7123    0.1505    0.9881
Li    Li1325        0.5752    0.1975    0.8687
Li    Li1326        0.6618    0.2111    0.1439
Li    Li1327        0.7116    0.2035    0.3570
Li    Li1328        0.6993    0.2582    0.9765
Li    Li1329        0.7001    0.2155    0.8606
Li    Li1330        0.7092    0.2980    0.1174
Li    Li1331        0.5871    0.3977    0.1072
Li    Li1332        0.7199    0.3436    0.7437
Li    Li1333        0.5880    0.3909    0.8663
Li    Li1334        0.6662    0.4493    0.0031
Li    Li1335        0.7083    0.4538    0.7325
Li    Li1336        0.5809    0.5001    0.6042
Li    Li1337        0.7112    0.4495    0.9945
Li    Li1338        0.5761    0.5622    0.2329
Li    Li1339        0.6997    0.5464    0.2268
Li    Li1340        0.7023    0.5118    0.1020
Li    Li1341        0.6732    0.5071    0.1423
Li    Li1342        0.5403    0.5998    0.3804
Li    Li1343        0.6045    0.6011    0.3770
Li    Li1344        0.5708    0.5468    0.7376
Li    Li1345        0.5526    0.5971    0.6293
Li    Li1346        0.5705    0.5964    0.6097
Li    Li1347        0.5795    0.5509    0.9949
Li    Li1348        0.7107    0.4882    0.8805
Li    Li1349        0.5442    0.6032    0.8965
Li    Li1350        0.5801    0.6530    0.2390
Li    Li1351        0.5402    0.6546    0.0239
Li    Li1352        0.6624    0.6002    0.1436
Li    Li1353        0.5885    0.6544    0.4901
Li    Li1354        0.5459    0.6421    0.2730
Li    Li1355        0.7014    0.6537    0.4867
Li    Li1356        0.7099    0.6550    0.7359
Li    Li1357        0.6682    0.6083    0.6419
Li    Li1358        0.5877    0.6899    0.6112
Li    Li1359        0.5799    0.6717    0.9866
Li    Li1360        0.7086    0.6386    0.9771
Li    Li1361        0.5436    0.7566    0.0224
Li    Li1362        0.6670    0.7527    0.2690
Li    Li1363        0.7035    0.7102    0.3559
Li    Li1364        0.5407    0.8058    0.3899
Li    Li1365        0.5839    0.7849    0.3552
Li    Li1366        0.5447    0.7635    0.5213
Li    Li1367        0.5449    0.8017    0.6443
Li    Li1368        0.6966    0.7375    0.0086
Li    Li1369        0.7144    0.8502    0.2299
Li    Li1370        0.5786    0.8633    0.4824
Li    Li1371        0.6655    0.8163    0.3943
Li    Li1372        0.5800    0.8508    0.7420
Li    Li1373        0.5422    0.9001    0.6354
Li    Li1374        0.5819    0.8877    0.5975
Li    Li1375        0.5457    0.8454    0.7742
Li    Li1376        0.7126    0.7983    0.8595
Li    Li1377        0.5486    0.8964    0.8741
Li    Li1378        0.6680    0.8989    0.3964
Li    Li1379        0.5811    0.9567    0.7371
Li    Li1380        0.6667    0.9441    0.5226
Li    Li1381        0.5426    0.0022    0.6419
Li    Li1382        0.5438    0.9896    0.8874
Li    Li1383        0.7810    0.0508    0.0170
Li    Li1384        0.9481    0.0545    0.2316
Li    Li1385        0.9191    0.0505    0.2691
Li    Li1386        0.9604    0.0091    0.6097
Li    Li1387        0.9257    0.9938    0.6410
Li    Li1388        0.8263    0.0540    0.9850
Li    Li1389        0.9265    0.0403    0.7669
Li    Li1390        0.9516    0.0564    0.9877
Li    Li1391        0.9186    0.9961    0.8845
Li    Li1392        0.8360    0.1518    0.2349
Li    Li1393        0.7931    0.1419    0.0290
Li    Li1394        0.9560    0.1566    0.2293
Li    Li1395        0.7923    0.1904    0.1386
Li    Li1396        0.8041    0.1498    0.2656
Li    Li1397        0.9559    0.1002    0.3617
Li    Li1398        0.7876    0.1969    0.3851
Li    Li1399        0.9589    0.1092    0.8564
Li    Li1400        0.9211    0.1011    0.8939
Li    Li1401        0.8355    0.2562    0.2390
Li    Li1402        0.9641    0.2475    0.2268
Li    Li1403        0.9187    0.1885    0.1246
Li    Li1404        0.9170    0.2443    0.2588
Li    Li1405        0.7815    0.2630    0.2801
Li    Li1406        0.9164    0.2106    0.8918
Li    Li1407        0.9275    0.3526    0.0144
Li    Li1408        0.7914    0.3968    0.1419
Li    Li1409        0.9230    0.3072    0.1352
Li    Li1410        0.8374    0.3509    0.7261
Li    Li1411        0.7923    0.3472    0.7649
Li    Li1412        0.9161    0.3003    0.8856
Li    Li1413        0.9164    0.4554    0.0168
Li    Li1414        0.9575    0.4506    0.2378
Li    Li1415        0.9589    0.4195    0.0927
Li    Li1416        0.7997    0.4942    0.6404
Li    Li1417        0.8320    0.4962    0.6092
Li    Li1418        0.8288    0.4645    0.9849
Li    Li1419        0.7917    0.4469    0.7650
Li    Li1420        0.7933    0.4888    0.8995
Li    Li1421        0.8495    0.4809    0.8800
Li    Li1422        0.9048    0.5440    0.9924
Li    Li1423        0.9648    0.5081    0.3671
Li    Li1424        0.8348    0.5928    0.3613
Li    Li1425        0.8438    0.5488    0.7353
Li    Li1426        0.9511    0.5134    0.6055
Li    Li1427        0.9177    0.5451    0.7733
Li    Li1428        0.7967    0.5917    0.8919
Li    Li1429        0.9112    0.6533    0.0078
Li    Li1430        0.9572    0.6065    0.1083
Li    Li1431        0.7988    0.7005    0.1406
Li    Li1432        0.9547    0.6105    0.3554
Li    Li1433        0.7926    0.6953    0.3996
Li    Li1434        0.8316    0.6934    0.3579
Li    Li1435        0.7955    0.6546    0.7604
Li    Li1436        0.9492    0.6434    0.9880
Li    Li1437        0.7981    0.7032    0.8904
Li    Li1438        0.9198    0.5887    0.9115
Li    Li1439        0.8382    0.6869    0.8474
Li    Li1440        0.9223    0.7410    0.0195
Li    Li1441        0.9587    0.7401    0.2322
Li    Li1442        0.9527    0.7114    0.1055
Li    Li1443        0.8314    0.7948    0.1132
Li    Li1444        0.9565    0.7571    0.4857
Li    Li1445        0.9086    0.7011    0.6231
Li    Li1446        0.8306    0.8024    0.6060
Li    Li1447        0.9551    0.7544    0.9828
Li    Li1448        0.9266    0.8448    0.0159
Li    Li1449        0.9576    0.8530    0.2376
Li    Li1450        0.9615    0.9368    0.4832
Li    Li1451        0.1199    0.0428    0.2217
Li    Li1452        0.2669    0.0670    0.2267
Li    Li1453        0.2482    0.0943    0.3518
Li    Li1454        0.1248    0.0889    0.4030
Li    Li1455        0.1319    0.0253    0.4791
Li    Li1456        0.2753    0.0621    0.4632
Li    Li1457        0.9766    0.0215    0.2665
Li    Li1458        0.9889    0.0121    0.6624
Li    Li1459        0.1129    0.0144    0.6025
Li    Li1460        0.2459    0.0900    0.8449
Li    Li1461        0.9986    0.0375    0.7782
Li    Li1462        0.1290    0.1555    0.0337
Li    Li1463        0.1318    0.1373    0.2136
Li    Li1464        0.1440    0.1105    0.3429
Li    Li1465        0.1129    0.1578    0.2744
Li    Li1466        0.1251    0.1372    0.4803
Li    Li1467        0.2474    0.1584    0.4779
Li    Li1468        0.1364    0.1090    0.5893
Li    Li1469        0.1486    0.1556    0.5168
Li    Li1470        0.1313    0.1337    0.7303
Li    Li1471        0.2460    0.1577    0.7241
Li    Li1472        0.9866    0.1214    0.9027
Li    Li1473        0.1312    0.1178    0.8545
Li    Li1474        0.1110    0.1855    0.9097
Li    Li1475        0.1171    0.2086    0.0981
Li    Li1476        0.1456    0.2697    0.0281
Li    Li1477        0.1130    0.2241    0.3508
Li    Li1478        0.1195    0.2908    0.4172
Li    Li1479        0.2514    0.2649    0.4647
Li    Li1480        0.9834    0.2437    0.2831
Li    Li1481        0.1191    0.2194    0.6060
Li    Li1482        0.1173    0.2894    0.6491
Li    Li1483        0.1408    0.2626    0.5302
Li    Li1484        0.1273    0.2399    0.7054
Li    Li1485        0.2502    0.2660    0.7161
Li    Li1486        0.2501    0.2931    0.8369
Li    Li1487        0.1243    0.2904    0.9078
Li    Li1488        0.2573    0.2667    0.9730
Li    Li1489        0.9794    0.2341    0.7763
Li    Li1490        0.9998    0.3048    0.1537
Li    Li1491        0.2581    0.3822    0.1022
Li    Li1492        0.1352    0.3197    0.0934
Li    Li1493        0.1320    0.3574    0.0307
Li    Li1494        0.1250    0.3366    0.2099
Li    Li1495        0.2510    0.3660    0.2138
Li    Li1496        0.9943    0.3425    0.0329
Li    Li1497        0.2557    0.3957    0.3349
Li    Li1498        0.1257    0.3090    0.3453
Li    Li1499        0.1288    0.3885    0.4004
Li    Li1500        0.9970    0.3111    0.6599
Li    Li1501        0.2493    0.3859    0.6078
Li    Li1502        0.1355    0.3296    0.7176
Li    Li1503        0.2467    0.3572    0.7195
Li    Li1504        0.1162    0.3051    0.8463
Li    Li1505        0.1362    0.3924    0.8876
Li    Li1506        0.1235    0.3630    0.7806
Li    Li1507        0.1390    0.3418    0.9633
Li    Li1508        0.9859    0.3376    0.7864
Li    Li1509        0.9901    0.4258    0.1491
Li    Li1510        0.2502    0.4863    0.1000
Li    Li1511        0.1144    0.4582    0.0318
Li    Li1512        0.2550    0.4616    0.2219
Li    Li1513        0.2284    0.4906    0.3380
Li    Li1514        0.1247    0.4036    0.3468
Li    Li1515        0.1095    0.4840    0.4115
Li    Li1516        0.1136    0.4595    0.2946
Li    Li1517        0.1384    0.4350    0.4736
Li    Li1518        0.2548    0.4583    0.4567
Li    Li1519        0.9837    0.4386    0.2698
Li    Li1520        0.1415    0.4085    0.5931
Li    Li1521        0.1368    0.4361    0.7192
Li    Li1522        0.9846    0.4085    0.9100
Li    Li1523        0.2269    0.4927    0.8443
Li    Li1524        0.1333    0.4897    0.9034
Li    Li1525        0.2687    0.4645    0.9759
Li    Li1526        0.9980    0.4369    0.7759
Li    Li1527        0.2469    0.5925    0.3369
Li    Li1528        0.1277    0.5135    0.3503
Li    Li1529        0.1253    0.5909    0.4107
Li    Li1530        0.2553    0.5688    0.4780
Li    Li1531        0.0060    0.5415    0.2829
Li    Li1532        0.9902    0.5121    0.6694
Li    Li1533        0.1208    0.5147    0.5937
Li    Li1534        0.1294    0.5900    0.6456
Li    Li1535        0.1283    0.5565    0.5259
Li    Li1536        0.1224    0.5427    0.7336
Li    Li1537        0.2534    0.5620    0.7171
Li    Li1538        0.0062    0.5414    0.5270
Li    Li1539        0.0154    0.5190    0.9019
Li    Li1540        0.2455    0.5908    0.8475
Li    Li1541        0.1313    0.5078    0.8462
Li    Li1542        0.1274    0.5856    0.9040
Li    Li1543        0.1307    0.5595    0.7812
Li    Li1544        0.2577    0.5517    0.9590
Li    Li1545        0.2458    0.6856    0.0934
Li    Li1546        0.1406    0.6159    0.1019
Li    Li1547        0.1484    0.6784    0.0270
Li    Li1548        0.0013    0.6326    0.0164
Li    Li1549        0.9983    0.6245    0.3988
Li    Li1550        0.2567    0.6761    0.3496
Li    Li1551        0.1284    0.6140    0.3407
Li    Li1552        0.1229    0.6919    0.4010
Li    Li1553        0.1244    0.6534    0.2870
Li    Li1554        0.1217    0.6363    0.4663
Li    Li1555        0.2430    0.6613    0.4738
Li    Li1556        0.1256    0.6077    0.5981
Li    Li1557        0.1256    0.6633    0.5356
Li    Li1558        0.1256    0.6401    0.7171
Li    Li1559        0.9828    0.6151    0.9022
Li    Li1560        0.1282    0.6070    0.8388
Li    Li1561        0.1175    0.6928    0.9036
Li    Li1562        0.1355    0.6617    0.7768
Li    Li1563        0.2324    0.6606    0.9696
Li    Li1564        0.0134    0.6325    0.7828
Li    Li1565        0.0012    0.7124    0.1516
Li    Li1566        0.1407    0.7834    0.1528
Li    Li1567        0.1256    0.7545    0.0313
Li    Li1568        0.2623    0.7579    0.2172
Li    Li1569        0.9910    0.7406    0.0321
Li    Li1570        0.0088    0.7041    0.3883
Li    Li1571        0.2455    0.7838    0.3432
Li    Li1572        0.1298    0.7097    0.3479
Li    Li1573        0.1403    0.7895    0.4025
Li    Li1574        0.1258    0.7420    0.4713
Li    Li1575        0.0020    0.7360    0.2834
Li    Li1576        0.9994    0.7133    0.6722
Li    Li1577        0.2542    0.7887    0.5987
Li    Li1578        0.1134    0.7664    0.5387
Li    Li1579        0.1281    0.7376    0.7145
Li    Li1580        0.9959    0.7443    0.5326
Li    Li1581        0.1181    0.7123    0.8448
Li    Li1582        0.1179    0.7802    0.8974
Li    Li1583        0.2325    0.7608    0.9682
Li    Li1584        0.9974    0.8076    0.1669
Li    Li1585        0.1177    0.8778    0.1464
Li    Li1586        0.1078    0.8370    0.2217
Li    Li1587        0.1591    0.8861    0.4066
Li    Li1588        0.1323    0.8402    0.4590
Li    Li1589        0.1370    0.8624    0.5284
Li    Li1590        0.2546    0.8650    0.7256
Li    Li1591        0.1217    0.8053    0.8567
Li    Li1592        0.9903    0.9182    0.1435
Li    Li1593        0.1114    0.9867    0.1605
Li    Li1594        0.1351    0.9410    0.2160
Li    Li1595        0.2497    0.9625    0.2229
Li    Li1596        0.2564    0.9822    0.3546
Li    Li1597        0.1219    0.9074    0.3422
Li    Li1598        0.1085    0.9650    0.2793
Li    Li1599        0.1265    0.9322    0.4758
Li    Li1600        0.2483    0.0013    0.1536
Li    Li1601        0.2441    0.0165    0.4233
Li    Li1602        0.3709    0.0038    0.3424
Li    Li1603        0.3672    0.0871    0.4177
Li    Li1604        0.3777    0.0412    0.4720
Li    Li1605        0.2406    0.0384    0.2923
Li    Li1606        0.3680    0.0588    0.5357
Li    Li1607        0.2233    0.0304    0.5270
Li    Li1608        0.5020    0.0615    0.9640
Li    Li1609        0.2643    0.1114    0.1445
Li    Li1610        0.5120    0.1809    0.0969
Li    Li1611        0.3652    0.1933    0.1570
Li    Li1612        0.5152    0.1828    0.3519
Li    Li1613        0.2453    0.1457    0.2789
Li    Li1614        0.2461    0.1307    0.6492
Li    Li1615        0.3864    0.1387    0.7120
Li    Li1616        0.2517    0.1119    0.8991
Li    Li1617        0.4914    0.1880    0.8544
Li    Li1618        0.3753    0.1068    0.8238
Li    Li1619        0.3746    0.1902    0.9052
Li    Li1620        0.3751    0.1630    0.7816
Li    Li1621        0.2737    0.1287    0.7706
Li    Li1622        0.3700    0.2965    0.1577
Li    Li1623        0.3876    0.2641    0.0234
Li    Li1624        0.3786    0.2382    0.2141
Li    Li1625        0.2358    0.2063    0.4163
Li    Li1626        0.2451    0.2192    0.6441
Li    Li1627        0.5178    0.2765    0.6075
Li    Li1628        0.3753    0.2909    0.6626
Li    Li1629        0.3871    0.2410    0.6978
Li    Li1630        0.2422    0.2098    0.9059
Li    Li1631        0.3978    0.2280    0.8552
Li    Li1632        0.3838    0.2842    0.9038
Li    Li1633        0.3813    0.2625    0.7757
Li    Li1634        0.3730    0.2433    0.9631
Li    Li1635        0.5050    0.2580    0.9705
Li    Li1636        0.3733    0.3096    0.0975
Li    Li1637        0.3776    0.3919    0.1570
Li    Li1638        0.3763    0.3393    0.2207
Li    Li1639        0.2491    0.3358    0.0313
Li    Li1640        0.2305    0.3141    0.4100
Li    Li1641        0.3855    0.3414    0.4651
Li    Li1642        0.3782    0.3024    0.5859
Li    Li1643        0.3774    0.3607    0.5258
Li    Li1644        0.2663    0.3128    0.8991
Li    Li1645        0.3982    0.3310    0.8561
Li    Li1646        0.3777    0.3397    0.9729
Li    Li1647        0.5142    0.4899    0.1059
Li    Li1648        0.3641    0.4210    0.0902
Li    Li1649        0.3745    0.4629    0.0317
Li    Li1650        0.2485    0.4376    0.0203
Li    Li1651        0.3541    0.4821    0.4036
Li    Li1652        0.2261    0.4328    0.5263
Li    Li1653        0.3737    0.4953    0.9055
Li    Li1654        0.3825    0.4490    0.7614
Li    Li1655        0.3586    0.4334    0.9707
Li    Li1656        0.3828    0.5123    0.0952
Li    Li1657        0.3613    0.5817    0.1420
Li    Li1658        0.3908    0.5664    0.0300
Li    Li1659        0.3669    0.5409    0.2240
Li    Li1660        0.5109    0.5865    0.3284
Li    Li1661        0.3774    0.5914    0.4123
Li    Li1662        0.3740    0.5402    0.4813
Li    Li1663        0.5047    0.5640    0.4907
Li    Li1664        0.2394    0.5088    0.6375
Li    Li1665        0.3888    0.5575    0.5206
Li    Li1666        0.5039    0.5634    0.7424
Li    Li1667        0.2420    0.5133    0.9048
Li    Li1668        0.3664    0.5784    0.8987
Li    Li1669        0.3660    0.5391    0.9773
Li    Li1670        0.2496    0.5392    0.7888
Li    Li1671        0.2396    0.6138    0.1508
Li    Li1672        0.5051    0.6864    0.0843
Li    Li1673        0.3858    0.6599    0.0319
Li    Li1674        0.3752    0.6357    0.2225
Li    Li1675        0.2526    0.6428    0.0329
Li    Li1676        0.2492    0.6105    0.4065
Li    Li1677        0.4775    0.6898    0.3435
Li    Li1678        0.3834    0.6094    0.3478
Li    Li1679        0.3723    0.6913    0.4225
Li    Li1680        0.3853    0.6623    0.2800
Li    Li1681        0.3895    0.6340    0.4746
Li    Li1682        0.5143    0.6752    0.6081
Li    Li1683        0.3665    0.6605    0.5433
Li    Li1684        0.3766    0.6352    0.7184
Li    Li1685        0.2458    0.6392    0.5343
Li    Li1686        0.3856    0.6008    0.8506
Li    Li1687        0.3547    0.6855    0.8935
Li    Li1688        0.3793    0.6342    0.9757
Li    Li1689        0.2560    0.6411    0.7774
Li    Li1690        0.3754    0.7654    0.0241
Li    Li1691        0.3570    0.7375    0.2218
Li    Li1692        0.2291    0.7371    0.0365
Li    Li1693        0.2373    0.7093    0.4046
Li    Li1694        0.3679    0.7841    0.3953
Li    Li1695        0.3655    0.7622    0.2924
Li    Li1696        0.3913    0.7263    0.4828
Li    Li1697        0.4702    0.7844    0.4667
Li    Li1698        0.2453    0.7341    0.2658
Li    Li1699        0.5036    0.7887    0.5901
Li    Li1700        0.3784    0.7073    0.5879
Li    Li1701        0.3925    0.7620    0.5257
Li    Li1702        0.3594    0.7316    0.7200
Li    Li1703        0.5055    0.7618    0.7381
Li    Li1704        0.2494    0.7438    0.5363
Li    Li1705        0.2502    0.7097    0.9134
Li    Li1706        0.5011    0.7906    0.8408
Li    Li1707        0.3630    0.7866    0.9186
Li    Li1708        0.3581    0.7498    0.7913
Li    Li1709        0.3849    0.7435    0.9691
Li    Li1710        0.4943    0.7579    0.9757
Li    Li1711        0.5103    0.8801    0.3573
Li    Li1712        0.3857    0.8127    0.3286
Li    Li1713        0.3494    0.8965    0.4121
Li    Li1714        0.3734    0.8422    0.4692
Li    Li1715        0.4027    0.8173    0.5818
Li    Li1716        0.3867    0.8639    0.5277
Li    Li1717        0.5058    0.8648    0.7392
Li    Li1718        0.2579    0.8382    0.5289
Li    Li1719        0.5306    0.8849    0.8471
Li    Li1720        0.5100    0.9825    0.0887
Li    Li1721        0.2244    0.9125    0.4051
Li    Li1722        0.5050    0.9961    0.3455
Li    Li1723        0.3768    0.9426    0.4662
Li    Li1724        0.2431    0.9345    0.2793
Li    Li1725        0.4923    0.9859    0.5943
Li    Li1726        0.5207    0.9779    0.8556
Li    Li1727        0.7655    0.0811    0.0944
Li    Li1728        0.6262    0.0124    0.0939
Li    Li1729        0.6145    0.0876    0.1459
Li    Li1730        0.6245    0.0628    0.0261
Li    Li1731        0.6321    0.0401    0.2150
Li    Li1732        0.5013    0.0271    0.0357
Li    Li1733        0.4980    0.0115    0.3991
Li    Li1734        0.7568    0.0912    0.3425
Li    Li1735        0.6320    0.0100    0.3412
Li    Li1736        0.4841    0.0421    0.5405
Li    Li1737        0.6250    0.0883    0.9060
Li    Li1738        0.7598    0.0584    0.9714
Li    Li1739        0.4903    0.1205    0.1439
Li    Li1740        0.6224    0.1075    0.0991
Li    Li1741        0.6202    0.1932    0.1570
Li    Li1742        0.6186    0.1645    0.0155
Li    Li1743        0.6251    0.1403    0.2130
Li    Li1744        0.7601    0.1653    0.2315
Li    Li1745        0.7393    0.1827    0.3480
Li    Li1746        0.6193    0.1650    0.2711
Li    Li1747        0.5023    0.1425    0.2859
Li    Li1748        0.7560    0.1942    0.8445
Li    Li1749        0.6267    0.1160    0.8575
Li    Li1750        0.6221    0.1920    0.9113
Li    Li1751        0.6195    0.1379    0.9635
Li    Li1752        0.7493    0.1647    0.9724
Li    Li1753        0.4908    0.1350    0.7806
Li    Li1754        0.5037    0.2089    0.1590
Li    Li1755        0.7528    0.2918    0.1013
Li    Li1756        0.6359    0.2072    0.0884
Li    Li1757        0.6241    0.2882    0.1621
Li    Li1758        0.4956    0.2383    0.5336
Li    Li1759        0.4867    0.2147    0.9041
Li    Li1760        0.6359    0.2095    0.8473
Li    Li1761        0.6301    0.2639    0.7716
Li    Li1762        0.4905    0.3122    0.1715
Li    Li1763        0.7472    0.3903    0.1031
Li    Li1764        0.6072    0.3939    0.1419
Li    Li1765        0.6291    0.3430    0.2170
Li    Li1766        0.4887    0.3273    0.0203
Li    Li1767        0.4992    0.3083    0.6545
Li    Li1768        0.7658    0.3696    0.7252
Li    Li1769        0.7635    0.3851    0.8489
Li    Li1770        0.4946    0.3465    0.7884
Li    Li1771        0.6163    0.4183    0.0956
Li    Li1772        0.6275    0.4645    0.0310
Li    Li1773        0.6344    0.4437    0.2135
Li    Li1774        0.6230    0.4398    0.4746
Li    Li1775        0.6203    0.4846    0.6579
Li    Li1776        0.6197    0.4687    0.5259
Li    Li1777        0.7510    0.4600    0.7235
Li    Li1778        0.7600    0.4835    0.8558
Li    Li1779        0.6299    0.4915    0.9018
Li    Li1780        0.5111    0.5127    0.1533
Li    Li1781        0.6359    0.5090    0.1027
Li    Li1782        0.6234    0.5913    0.1609
Li    Li1783        0.6260    0.5578    0.0403
Li    Li1784        0.7307    0.5635    0.2190
Li    Li1785        0.6237    0.5897    0.4031
Li    Li1786        0.5083    0.5412    0.2724
Li    Li1787        0.6324    0.5915    0.6404
Li    Li1788        0.6358    0.5319    0.7225
Li    Li1789        0.4925    0.5412    0.5406
Li    Li1790        0.5050    0.5081    0.9031
Li    Li1791        0.6180    0.5070    0.8523
Li    Li1792        0.6286    0.5858    0.9020
Li    Li1793        0.6168    0.5445    0.9727
Li    Li1794        0.5039    0.6139    0.1541
Li    Li1795        0.6277    0.6099    0.0907
Li    Li1796        0.6206    0.6423    0.2280
Li    Li1797        0.7450    0.6664    0.2235
Li    Li1798        0.4879    0.6408    0.0254
Li    Li1799        0.7537    0.6844    0.3595
Li    Li1800        0.6485    0.6132    0.3436
Li    Li1801        0.6264    0.6901    0.4075
Li    Li1802        0.6196    0.6567    0.2806
Li    Li1803        0.7485    0.6594    0.4708
Li    Li1804        0.4785    0.6179    0.6514
Li    Li1805        0.6300    0.6171    0.6066
Li    Li1806        0.6255    0.6877    0.6523
Li    Li1807        0.6253    0.6592    0.5302
Li    Li1808        0.7624    0.6640    0.7174
Li    Li1809        0.5142    0.6124    0.9040
Li    Li1810        0.6243    0.7126    0.0908
Li    Li1811        0.6300    0.7324    0.2353
Li    Li1812        0.4990    0.7403    0.0259
Li    Li1813        0.5037    0.7142    0.3983
Li    Li1814        0.6408    0.7131    0.3306
Li    Li1815        0.6367    0.7995    0.4013
Li    Li1816        0.6409    0.7658    0.2745
Li    Li1817        0.6127    0.7421    0.4710
Li    Li1818        0.4996    0.7349    0.2831
Li    Li1819        0.7429    0.7915    0.5924
Li    Li1820        0.6324    0.7122    0.5966
Li    Li1821        0.5940    0.7375    0.7172
Li    Li1822        0.4892    0.7409    0.5347
Li    Li1823        0.7445    0.7899    0.8447
Li    Li1824        0.5009    0.7379    0.7771
Li    Li1825        0.7614    0.8544    0.2098
Li    Li1826        0.4944    0.8173    0.3998
Li    Li1827        0.6328    0.8680    0.2799
Li    Li1828        0.7435    0.8506    0.4781
Li    Li1829        0.4910    0.8190    0.6465
Li    Li1830        0.6083    0.8721    0.5222
Li    Li1831        0.6339    0.8441    0.7196
Li    Li1832        0.5012    0.8118    0.8925
Li    Li1833        0.6332    0.8099    0.8437
Li    Li1834        0.6125    0.8890    0.8776
Li    Li1835        0.6281    0.8682    0.7752
Li    Li1836        0.4853    0.8283    0.7746
Li    Li1837        0.6286    0.9610    0.0218
Li    Li1838        0.7448    0.9654    0.2256
Li    Li1839        0.5075    0.9107    0.4002
Li    Li1840        0.7515    0.9938    0.3417
Li    Li1841        0.6340    0.9120    0.3427
Li    Li1842        0.6177    0.9890    0.3946
Li    Li1843        0.5066    0.9076    0.6478
Li    Li1844        0.6240    0.9077    0.5870
Li    Li1845        0.6053    0.9628    0.7771
Li    Li1846        0.8684    0.0505    0.2381
Li    Li1847        0.0022    0.0978    0.3470
Li    Li1848        0.0157    0.0739    0.4747
Li    Li1849        0.8918    0.0399    0.7105
Li    Li1850        0.7476    0.0133    0.9031
Li    Li1851        0.0077    0.0939    0.8275
Li    Li1852        0.8613    0.0116    0.8506
Li    Li1853        0.8864    0.0886    0.9038
Li    Li1854        0.8736    0.0375    0.9718
Li    Li1855        0.8685    0.1993    0.1554
Li    Li1856        0.0043    0.1616    0.2108
Li    Li1857        0.7648    0.1378    0.0283
Li    Li1858        0.7363    0.1161    0.3946
Li    Li1859        0.0054    0.1919    0.3406
Li    Li1860        0.8808    0.1840    0.3941
Li    Li1861        0.8651    0.1557    0.2770
Li    Li1862        0.7496    0.1062    0.9114
Li    Li1863        0.8545    0.1905    0.9016
Li    Li1864        0.8813    0.2890    0.1524
Li    Li1865        0.9157    0.2611    0.0300
Li    Li1866        0.8791    0.2388    0.2245
Li    Li1867        0.9946    0.2616    0.2154
Li    Li1868        0.8562    0.2144    0.3473
Li    Li1869        0.8714    0.2537    0.2880
Li    Li1870        0.0173    0.2845    0.5992
Li    Li1871        0.0051    0.2658    0.7138
Li    Li1872        0.7518    0.2123    0.9127
Li    Li1873        0.8743    0.2154    0.8487
Li    Li1874        0.8925    0.2896    0.8955
Li    Li1875        0.8762    0.2565    0.7826
Li    Li1876        0.9942    0.2702    0.9706
Li    Li1877        0.0088    0.3890    0.0966
Li    Li1878        0.8888    0.3117    0.0981
Li    Li1879        0.8645    0.3649    0.0180
Li    Li1880        0.8820    0.3435    0.2061
Li    Li1881        0.9932    0.3852    0.3405
Li    Li1882        0.8781    0.3451    0.7139
Li    Li1883        0.0000    0.3640    0.7220
Li    Li1884        0.9983    0.3889    0.8438
Li    Li1885        0.8800    0.3187    0.8499
Li    Li1886        0.8554    0.3812    0.8991
Li    Li1887        0.8630    0.3633    0.7932
Li    Li1888        0.7627    0.3343    0.7810
Li    Li1889        0.7481    0.4147    0.1498
Li    Li1890        0.8639    0.4585    0.0230
Li    Li1891        0.9969    0.4653    0.2249
Li    Li1892        0.7466    0.4360    0.0363
Li    Li1893        0.0030    0.4916    0.3346
Li    Li1894        0.8829    0.4167    0.3558
Li    Li1895        0.8818    0.4418    0.7148
Li    Li1896        0.0048    0.4565    0.7064
Li    Li1897        0.0138    0.4821    0.8518
Li    Li1898        0.8514    0.4128    0.8454
Li    Li1899        0.8787    0.4457    0.9673
Li    Li1900        0.7490    0.4375    0.7890
Li    Li1901        0.0000    0.5863    0.0924
Li    Li1902        0.8636    0.5893    0.1648
Li    Li1903        0.8808    0.5409    0.2265
Li    Li1904        0.0156    0.5757    0.2313
Li    Li1905        0.0032    0.5945    0.3408
Li    Li1906        0.8456    0.5835    0.2682
Li    Li1907        0.0092    0.5551    0.4573
Li    Li1908        0.7636    0.5408    0.2666
Li    Li1909        0.7505    0.5054    0.6599
Li    Li1910        0.9950    0.5923    0.8472
Li    Li1911        0.8890    0.5132    0.8579
Li    Li1912        0.8854    0.5560    0.7694
Li    Li1913        0.8633    0.5432    0.9718
Li    Li1914        0.7543    0.6146    0.1598
Li    Li1915        0.0107    0.6929    0.0942
Li    Li1916        0.8745    0.6542    0.0235
Li    Li1917        0.9887    0.6628    0.2235
Li    Li1918        0.8824    0.6082    0.3441
Li    Li1919        0.8856    0.6263    0.4832
Li    Li1920        0.0014    0.6588    0.4651
Li    Li1921        0.8615    0.6836    0.6514
Li    Li1922        0.7289    0.6163    0.8839
Li    Li1923        0.8641    0.6163    0.8429
Li    Li1924        0.8634    0.6904    0.9089
Li    Li1925        0.8972    0.6372    0.9771
Li    Li1926        0.7617    0.6432    0.7802
Li    Li1927        0.0028    0.7849    0.1093
Li    Li1928        0.8693    0.7867    0.1373
Li    Li1929        0.8734    0.7419    0.2197
Li    Li1930        0.0276    0.7835    0.3474
Li    Li1931        0.8794    0.7131    0.3397
Li    Li1932        0.8675    0.7415    0.4800
Li    Li1933        0.0160    0.7808    0.5975
Li    Li1934        0.8929    0.7144    0.6008
Li    Li1935        0.8809    0.7622    0.5247
Li    Li1936        0.7641    0.7120    0.9100
Li    Li1937        0.9978    0.7893    0.8561
Li    Li1938        0.8808    0.8115    0.0894
Li    Li1939        0.8729    0.8416    0.2318
Li    Li1940        0.9768    0.8884    0.3415
Li    Li1941        0.7401    0.8246    0.2801
Li    Li1942        0.7323    0.8202    0.5209
Li    Li1943        0.8686    0.9660    0.2760
Li    Li1944        0.7518    0.9429    0.2849
Li    Li1945        0.9968    0.9842    0.5985
Li    Li1946        0.8732    0.9927    0.9059
