data_max_cluster
_audit_creation_method         'generated by data2config v5.5c'
 
_cell_length_a                  84.92680
_cell_length_b                  87.57400
_cell_length_c                  75.14280
_cell_angle_alpha               90.00000
_cell_angle_beta                96.73700
_cell_angle_gamma               90.00000
 
loop_
_symmetry_equiv_pos_as_xyz
'+x,+y,+z'
 
loop_
_atom_site_type_symbol
_atom_site_label
_atom_site_fract_x
_atom_site_fract_y
_atom_site_fract_z
Li    Li1        0.0858    0.0994    0.1740
Li    Li2        0.1612    0.0078    0.0830
Li    Li3        0.2042    0.0161    0.1527
Li    Li4        0.2155    0.0363    0.2912
Li    Li5        0.1590    0.0105    0.3357
Li    Li6        0.0243    0.0835    0.3442
Li    Li7        0.2179    0.0140    0.4131
Li    Li8        0.1581    0.1396    0.2084
Li    Li9        0.0931    0.1657    0.0354
Li    Li10        0.1628    0.1201    0.0842
Li    Li11        0.2113    0.1302    0.2721
Li    Li12        0.1529    0.1420    0.4719
Li    Li13        0.2336    0.1096    0.4095
Li    Li14        0.1626    0.1426    0.7051
Li    Li15        0.0375    0.2866    0.0800
Li    Li16        0.1513    0.2333    0.4633
Li    Li17        0.1603    0.2028    0.5843
Li    Li18        0.0391    0.2751    0.5986
Li    Li19        0.2073    0.3319    0.2692
Li    Li20        0.1725    0.3418    0.4633
Li    Li21        0.0822    0.3583    0.2738
Li    Li22        0.0869    0.3826    0.3998
Li    Li23        0.1627    0.3179    0.3460
Li    Li24        0.0388    0.3891    0.3256
Li    Li25        0.1621    0.3361    0.7197
Li    Li26        0.0908    0.3900    0.6614
Li    Li27        0.2096    0.3281    0.8975
Li    Li28        0.0804    0.4866    0.1802
Li    Li29        0.1590    0.4058    0.0967
Li    Li30        0.2166    0.4147    0.1562
Li    Li31        0.0872    0.4851    0.4294
Li    Li32        0.2057    0.4137    0.4059
Li    Li33        0.2131    0.4361    0.7764
Li    Li34        0.2145    0.4086    0.9210
Li    Li35        0.1719    0.5318    0.4815
Li    Li36        0.1620    0.5417    0.7108
Li    Li37        0.1686    0.5149    0.5964
Li    Li38        0.0344    0.5949    0.5767
Li    Li39        0.1596    0.5208    0.8348
Li    Li40        0.2087    0.6202    0.0167
Li    Li41        0.0407    0.6615    0.2088
Li    Li42        0.1641    0.6377    0.2109
Li    Li43        0.0418    0.6892    0.0755
Li    Li44        0.0834    0.6649    0.2819
Li    Li45        0.1645    0.6053    0.5814
Li    Li46        0.2208    0.6321    0.7889
Li    Li47        0.0899    0.6577    0.7925
Li    Li48        0.0396    0.7673    0.2094
Li    Li49        0.2255    0.7163    0.1625
Li    Li50        0.0737    0.7907    0.4179
Li    Li51        0.0358    0.7629    0.7040
Li    Li52        0.0410    0.7892    0.8436
Li    Li53        0.2283    0.7172    0.9122
Li    Li54        0.1648    0.8352    0.4524
Li    Li55        0.0354    0.8866    0.3324
Li    Li56        0.2120    0.8328    0.5391
Li    Li57        0.1557    0.8160    0.8366
Li    Li58        0.1585    0.9462    0.1997
Li    Li59        0.0382    0.9926    0.0806
Li    Li60        0.0988    0.9885    0.4012
Li    Li61        0.1510    0.9193    0.3501
Li    Li62        0.0374    0.9861    0.3375
Li    Li63        0.2156    0.9333    0.7822
Li    Li64        0.0845    0.9588    0.7942
Li    Li65        0.4670    0.0367    0.0355
Li    Li66        0.3362    0.0887    0.1748
Li    Li67        0.4722    0.0352    0.2803
Li    Li68        0.2891    0.0602    0.4566
Li    Li69        0.3365    0.0654    0.2817
Li    Li70        0.4206    0.1670    0.1918
Li    Li71        0.4166    0.1077    0.0954
Li    Li72        0.4617    0.1106    0.1527
Li    Li73        0.3496    0.1854    0.4079
Li    Li74        0.2876    0.1906    0.3295
Li    Li75        0.3391    0.1901    0.6761
Li    Li76        0.3439    0.1671    0.7777
Li    Li77        0.4136    0.1066    0.8268
Li    Li78        0.4604    0.1075    0.9140
Li    Li79        0.2935    0.2594    0.2083
Li    Li80        0.4260    0.2284    0.2263
Li    Li81        0.2873    0.2906    0.0788
Li    Li82        0.4630    0.2147    0.1668
Li    Li83        0.4196    0.2463    0.4537
Li    Li84        0.4271    0.2166    0.3535
Li    Li85        0.2856    0.2888    0.8379
Li    Li86        0.2896    0.3599    0.2103
Li    Li87        0.4145    0.3348    0.2210
Li    Li88        0.3374    0.3663    0.0418
Li    Li89        0.3511    0.3923    0.1468
Li    Li90        0.4000    0.3179    0.0826
Li    Li91        0.2818    0.3818    0.0894
Li    Li92        0.4645    0.3105    0.1681
Li    Li93        0.2819    0.3493    0.4527
Li    Li94        0.3328    0.3879    0.4091
Li    Li95        0.2828    0.3661    0.7268
Li    Li96        0.4085    0.3415    0.7091
Li    Li97        0.3393    0.3588    0.5463
Li    Li98        0.3343    0.3882    0.6692
Li    Li99        0.2885    0.3804    0.8576
Li    Li100        0.4035    0.4410    0.1962
Li    Li101        0.3440    0.4674    0.0403
Li    Li102        0.3463    0.4901    0.1727
Li    Li103        0.2836    0.4674    0.4527
Li    Li104        0.3439    0.4619    0.2907
Li    Li105        0.4580    0.4281    0.5217
Li    Li106        0.4115    0.5146    0.3523
Li    Li107        0.2996    0.5665    0.9805
Li    Li108        0.4103    0.5347    0.9595
Li    Li109        0.3401    0.6552    0.0426
Li    Li110        0.3435    0.6873    0.1588
Li    Li111        0.4206    0.6099    0.0951
Li    Li112        0.4589    0.6117    0.1711
Li    Li113        0.4683    0.6354    0.2888
Li    Li114        0.4118    0.6192    0.3387
Li    Li115        0.4605    0.6382    0.5443
Li    Li116        0.4129    0.6389    0.7010
Li    Li117        0.3381    0.6908    0.6647
Li    Li118        0.3336    0.6602    0.7961
Li    Li119        0.3470    0.6915    0.8936
Li    Li120        0.4601    0.6058    0.9236
Li    Li121        0.4680    0.7413    0.0417
Li    Li122        0.2816    0.7668    0.2145
Li    Li123        0.3405    0.7593    0.2940
Li    Li124        0.4079    0.7152    0.3414
Li    Li125        0.4124    0.7388    0.7146
Li    Li126        0.3316    0.7827    0.9031
Li    Li127        0.4075    0.8318    0.2125
Li    Li128        0.3215    0.8602    0.0078
Li    Li129        0.3245    0.8946    0.4102
Li    Li130        0.2836    0.8654    0.7035
Li    Li131        0.4146    0.8357    0.7070
Li    Li132        0.3342    0.8883    0.6545
Li    Li133        0.3371    0.8929    0.9173
Li    Li134        0.2995    0.8914    0.8436
Li    Li135        0.2901    0.9573    0.1988
Li    Li136        0.3474    0.9784    0.1470
Li    Li137        0.2907    0.9647    0.4780
Li    Li138        0.3361    0.9946    0.4235
Li    Li139        0.2927    0.9623    0.7060
Li    Li140        0.3446    0.9530    0.5355
Li    Li141        0.4212    0.9508    0.9659
Li    Li142        0.4160    0.9112    0.8327
Li    Li143        0.5916    0.0878    0.1631
Li    Li144        0.7039    0.0307    0.2695
Li    Li145        0.6604    0.0135    0.3315
Li    Li146        0.5831    0.0646    0.5411
Li    Li147        0.5412    0.0638    0.9550
Li    Li148        0.7072    0.1358    0.0464
Li    Li149        0.5333    0.1829    0.0885
Li    Li150        0.5390    0.1661    0.9463
Li    Li151        0.7149    0.1154    0.9150
Li    Li152        0.5907    0.2685    0.0378
Li    Li153        0.5271    0.2922    0.0800
Li    Li154        0.6656    0.2352    0.4743
Li    Li155        0.5838    0.2625    0.3042
Li    Li156        0.7165    0.2151    0.4114
Li    Li157        0.5413    0.2581    0.7043
Li    Li158        0.5904    0.2607    0.5461
Li    Li159        0.5860    0.2874    0.6638
Li    Li160        0.5954    0.2683    0.7915
Li    Li161        0.5815    0.3870    0.1703
Li    Li162        0.7132    0.3382    0.3014
Li    Li163        0.6603    0.3083    0.3310
Li    Li164        0.5558    0.3576    0.7101
Li    Li165        0.5936    0.3571    0.5421
Li    Li166        0.5877    0.3909    0.6558
Li    Li167        0.5909    0.3621    0.7784
Li    Li168        0.5375    0.3905    0.8296
Li    Li169        0.5330    0.4625    0.2180
Li    Li170        0.7298    0.4097    0.4178
Li    Li171        0.5886    0.4679    0.5309
Li    Li172        0.7077    0.5266    0.0372
Li    Li173        0.5401    0.5842    0.0937
Li    Li174        0.5807    0.5676    0.2821
Li    Li175        0.6581    0.5070    0.3357
Li    Li176        0.5385    0.5863    0.3300
Li    Li177        0.7226    0.5154    0.4073
Li    Li178        0.5352    0.5639    0.9637
Li    Li179        0.5961    0.5891    0.9130
Li    Li180        0.7034    0.6417    0.0403
Li    Li181        0.6605    0.6430    0.2045
Li    Li182        0.5426    0.6844    0.0787
Li    Li183        0.7315    0.6132    0.6509
Li    Li184        0.7066    0.6378    0.7782
Li    Li185        0.6624    0.6136    0.8334
Li    Li186        0.6624    0.7324    0.2197
Li    Li187        0.6566    0.7015    0.0877
Li    Li188        0.5377    0.7597    0.4687
Li    Li189        0.5899    0.7823    0.4112
Li    Li190        0.6617    0.7132    0.3406
Li    Li191        0.7187    0.7057    0.4106
Li    Li192        0.6657    0.7380    0.7094
Li    Li193        0.5859    0.7715    0.7854
Li    Li194        0.5382    0.8621    0.2058
Li    Li195        0.6521    0.8204    0.0947
Li    Li196        0.7086    0.8364    0.2983
Li    Li197        0.7121    0.8114    0.6675
Li    Li198        0.6601    0.8397    0.9555
Li    Li199        0.5933    0.8679    0.7856
Li    Li200        0.6641    0.8106    0.8293
Li    Li201        0.7059    0.9396    0.5257
Li    Li202        0.5318    0.9628    0.7086
Li    Li203        0.6633    0.9097    0.5974
Li    Li204        0.8502    0.0578    0.2904
Li    Li205        0.9731    0.0376    0.5333
Li    Li206        0.9127    0.0283    0.9856
Li    Li207        0.9660    0.1342    0.0383
Li    Li208        0.9006    0.1387    0.2188
Li    Li209        0.8361    0.1615    0.0311
Li    Li210        0.9099    0.1077    0.0777
Li    Li211        0.9731    0.1400    0.2841
Li    Li212        0.9136    0.1392    0.4622
Li    Li213        0.9040    0.1182    0.3364
Li    Li214        0.8989    0.2348    0.2221
Li    Li215        0.7712    0.2689    0.4800
Li    Li216        0.9028    0.2164    0.3346
Li    Li217        0.7813    0.2869    0.5998
Li    Li218        0.9133    0.2379    0.9561
Li    Li219        0.7862    0.2844    0.8354
Li    Li220        0.9654    0.3373    0.0308
Li    Li221        0.7873    0.3647    0.2194
Li    Li222        0.7916    0.3880    0.0810
Li    Li223        0.9606    0.3378    0.3067
Li    Li224        0.9218    0.3331    0.4589
Li    Li225        0.8365    0.3639    0.2886
Li    Li226        0.9205    0.3184    0.3499
Li    Li227        0.9647    0.3483    0.5418
Li    Li228        0.7891    0.3649    0.7254
Li    Li229        0.9142    0.3401    0.6979
Li    Li230        0.8320    0.3974    0.6649
Li    Li231        0.9179    0.3035    0.5806
Li    Li232        0.7813    0.3872    0.5960
Li    Li233        0.8330    0.3651    0.7891
Li    Li234        0.7812    0.3886    0.8460
Li    Li235        0.7837    0.4594    0.2141
Li    Li236        0.8425    0.4678    0.0195
Li    Li237        0.8394    0.4899    0.1750
Li    Li238        0.7827    0.4939    0.0831
Li    Li239        0.9138    0.4469    0.4500
Li    Li240        0.9170    0.4180    0.3460
Li    Li241        0.9632    0.4120    0.6690
Li    Li242        0.9568    0.4373    0.7880
Li    Li243        0.9035    0.4415    0.9640
Li    Li244        0.9666    0.5131    0.4191
Li    Li245        0.8437    0.5856    0.6647
Li    Li246        0.8428    0.6904    0.4200
Li    Li247        0.9113    0.6131    0.3318
Li    Li248        0.8337    0.6617    0.5284
Li    Li249        0.8331    0.6904    0.6720
Li    Li250        0.9110    0.6407    0.9588
Li    Li251        0.8370    0.6622    0.7861
Li    Li252        0.9086    0.6181    0.8537
Li    Li253        0.9626    0.6115    0.9147
Li    Li254        0.8302    0.7920    0.1509
Li    Li255        0.9533    0.7115    0.1490
Li    Li256        0.7936    0.7851    0.5847
Li    Li257        0.8380    0.7519    0.7933
Li    Li258        0.8542    0.7839    0.9155
Li    Li259        0.8961    0.7153    0.8553
Li    Li260        0.7930    0.8603    0.2040
Li    Li261        0.9101    0.8327    0.2091
Li    Li262        0.8380    0.8631    0.0428
Li    Li263        0.9162    0.8191    0.1078
Li    Li264        0.9068    0.8345    0.4569
Li    Li265        0.9022    0.9248    0.7206
Li    Li266        0.0387    0.0627    0.0776
Li    Li267        0.0402    0.0864    0.1928
Li    Li268        0.2042    0.0114    0.0558
Li    Li269        0.1745    0.0208    0.1966
Li    Li270        0.1692    0.0356    0.3224
Li    Li271        0.0747    0.0616    0.4358
Li    Li272        0.2114    0.0418    0.4336
Li    Li273        0.0455    0.0611    0.3236
Li    Li274        0.2044    0.0089    0.3132
Li    Li275        0.0780    0.0837    0.2993
Li    Li276        0.1695    0.0170    0.4448
Li    Li277        0.0819    0.0877    0.5487
Li    Li278        0.2075    0.1323    0.1719
Li    Li279        0.0438    0.1651    0.0735
Li    Li280        0.2050    0.1092    0.0541
Li    Li281        0.0800    0.1858    0.0427
Li    Li282        0.1690    0.1184    0.1993
Li    Li283        0.1644    0.1391    0.3225
Li    Li284        0.2006    0.1377    0.4325
Li    Li285        0.0441    0.1611    0.3187
Li    Li286        0.2069    0.1071    0.3009
Li    Li287        0.0762    0.1880    0.3067
Li    Li288        0.1760    0.1143    0.4441
Li    Li289        0.0377    0.1679    0.5681
Li    Li290        0.0862    0.1924    0.5540
Li    Li291        0.1733    0.1068    0.6907
Li    Li292        0.0516    0.2836    0.2005
Li    Li293        0.0779    0.2843    0.0533
Li    Li294        0.0871    0.2671    0.4290
Li    Li295        0.0431    0.2876    0.4425
Li    Li296        0.0799    0.2855    0.3030
Li    Li297        0.1683    0.2115    0.4524
Li    Li298        0.1697    0.2342    0.5687
Li    Li299        0.0763    0.2566    0.6832
Li    Li300        0.2084    0.2380    0.6793
Li    Li301        0.0315    0.2608    0.5693
Li    Li302        0.0457    0.2890    0.6886
Li    Li303        0.1946    0.2150    0.5566
Li    Li304        0.0749    0.2708    0.9330
Li    Li305        0.0362    0.2861    0.9312
Li    Li306        0.1738    0.3384    0.0764
Li    Li307        0.0794    0.3603    0.1820
Li    Li308        0.2124    0.3426    0.1783
Li    Li309        0.1710    0.3149    0.1948
Li    Li310        0.1716    0.3345    0.3283
Li    Li311        0.2058    0.3390    0.4275
Li    Li312        0.1896    0.3146    0.3058
Li    Li313        0.0764    0.3831    0.3092
Li    Li314        0.1978    0.3044    0.4498
Li    Li315        0.2082    0.3146    0.5453
Li    Li316        0.1710    0.3355    0.8246
Li    Li317        0.0857    0.3669    0.9286
Li    Li318        0.0366    0.3916    0.9497
Li    Li319        0.1713    0.3151    0.9361
Li    Li320        0.1689    0.4375    0.0741
Li    Li321        0.0775    0.4624    0.1821
Li    Li322        0.1994    0.4435    0.1804
Li    Li323        0.0478    0.4858    0.1927
Li    Li324        0.2023    0.4052    0.0502
Li    Li325        0.1693    0.4100    0.1899
Li    Li326        0.0792    0.4616    0.4277
Li    Li327        0.2026    0.4298    0.4322
Li    Li328        0.0415    0.4610    0.3191
Li    Li329        0.0430    0.4928    0.4440
Li    Li330        0.2037    0.4158    0.3028
Li    Li331        0.0818    0.4820    0.3016
Li    Li332        0.2006    0.4369    0.6801
Li    Li333        0.1978    0.4225    0.5466
Li    Li334        0.2253    0.4201    0.9431
Li    Li335        0.1695    0.4171    0.9485
Li    Li336        0.1627    0.5391    0.3211
Li    Li337        0.2023    0.5342    0.4285
Li    Li338        0.1829    0.5225    0.4372
Li    Li339        0.1714    0.5374    0.5774
Li    Li340        0.2034    0.5395    0.6783
Li    Li341        0.0563    0.5838    0.6988
Li    Li342        0.1995    0.5156    0.5525
Li    Li343        0.0795    0.5866    0.5559
Li    Li344        0.1703    0.5383    0.8168
Li    Li345        0.2060    0.5418    0.9240
Li    Li346        0.2057    0.5189    0.8059
Li    Li347        0.1621    0.6259    0.0666
Li    Li348        0.0761    0.6659    0.1802
Li    Li349        0.0372    0.6856    0.1942
Li    Li350        0.2005    0.6111    0.0441
Li    Li351        0.0701    0.6676    0.4289
Li    Li352        0.0412    0.6615    0.3254
Li    Li353        0.0442    0.6917    0.4403
Li    Li354        0.0780    0.6902    0.3047
Li    Li355        0.1692    0.6104    0.4490
Li    Li356        0.1657    0.6232    0.5638
Li    Li357        0.0851    0.6571    0.6883
Li    Li358        0.0472    0.6804    0.6945
Li    Li359        0.2174    0.6061    0.5513
Li    Li360        0.1690    0.6150    0.6994
Li    Li361        0.1667    0.6138    0.8212
Li    Li362        0.2029    0.6401    0.9324
Li    Li363        0.0440    0.6594    0.8176
Li    Li364        0.2011    0.6121    0.8113
Li    Li365        0.0635    0.6861    0.8086
Li    Li366        0.1657    0.6147    0.9457
Li    Li367        0.0732    0.7566    0.1810
Li    Li368        0.0523    0.7709    0.0754
Li    Li369        0.0389    0.7915    0.1914
Li    Li370        0.1666    0.7133    0.1928
Li    Li371        0.1665    0.7443    0.3120
Li    Li372        0.0409    0.7677    0.3193
Li    Li373        0.0430    0.7836    0.4694
Li    Li374        0.2085    0.7174    0.3056
Li    Li375        0.0493    0.7891    0.7010
Li    Li376        0.0747    0.7912    0.5578
Li    Li377        0.1679    0.7142    0.6993
Li    Li378        0.2017    0.7369    0.9343
Li    Li379        0.0512    0.7680    0.8192
Li    Li380        0.0755    0.7888    0.8052
Li    Li381        0.1709    0.7113    0.9479
Li    Li382        0.2041    0.8388    0.4314
Li    Li383        0.0430    0.8591    0.3235
Li    Li384        0.2224    0.8060    0.3069
Li    Li385        0.0804    0.8877    0.3024
Li    Li386        0.0784    0.8637    0.9247
Li    Li387        0.2080    0.8366    0.9283
Li    Li388        0.0361    0.8565    0.8230
Li    Li389        0.0395    0.8836    0.9416
Li    Li390        0.2017    0.8096    0.8112
Li    Li391        0.0927    0.9563    0.1776
Li    Li392        0.0413    0.9639    0.0704
Li    Li393        0.0706    0.9819    0.0599
Li    Li394        0.1715    0.9400    0.3209
Li    Li395        0.0791    0.9567    0.4264
Li    Li396        0.2043    0.9398    0.4238
Li    Li397        0.0425    0.9643    0.3198
Li    Li398        0.0522    0.9800    0.4413
Li    Li399        0.2044    0.9177    0.3137
Li    Li400        0.0781    0.9833    0.3014
Li    Li401        0.1654    0.9109    0.4477
Li    Li402        0.2027    0.9401    0.6752
Li    Li403        0.1774    0.9091    0.6931
Li    Li404        0.1658    0.9426    0.8211
Li    Li405        0.2185    0.9478    0.9292
Li    Li406        0.0494    0.9661    0.8325
Li    Li407        0.2062    0.9089    0.8044
Li    Li408        0.0845    0.9859    0.8034
Li    Li409        0.4078    0.0441    0.0769
Li    Li410        0.2990    0.0883    0.1957
Li    Li411        0.4629    0.0083    0.0581
Li    Li412        0.4246    0.0232    0.3247
Li    Li413        0.3250    0.0584    0.4282
Li    Li414        0.4588    0.0217    0.4188
Li    Li415        0.2907    0.0643    0.3272
Li    Li416        0.4584    0.0125    0.2952
Li    Li417        0.4213    0.0069    0.4527
Li    Li418        0.4608    0.0469    0.6763
Li    Li419        0.3336    0.1618    0.1771
Li    Li420        0.4533    0.1349    0.1772
Li    Li421        0.4521    0.1159    0.0500
Li    Li422        0.4202    0.1049    0.1869
Li    Li423        0.3282    0.1615    0.4223
Li    Li424        0.4547    0.1371    0.4299
Li    Li425        0.2866    0.1533    0.3014
Li    Li426        0.4552    0.1133    0.3044
Li    Li427        0.4256    0.1116    0.4446
Li    Li428        0.3301    0.1649    0.6789
Li    Li429        0.2985    0.1900    0.6968
Li    Li430        0.4260    0.1404    0.8193
Li    Li431        0.4579    0.1352    0.9271
Li    Li432        0.4556    0.1195    0.8000
Li    Li433        0.3321    0.1914    0.7893
Li    Li434        0.4258    0.1106    0.9428
Li    Li435        0.4470    0.2356    0.1774
Li    Li436        0.2870    0.2674    0.0683
Li    Li437        0.3006    0.2813    0.1983
Li    Li438        0.4389    0.2195    0.0535
Li    Li439        0.3309    0.2895    0.0671
Li    Li440        0.4250    0.2044    0.1904
Li    Li441        0.4323    0.2386    0.3240
Li    Li442        0.4544    0.2278    0.4103
Li    Li443        0.4443    0.2244    0.3018
Li    Li444        0.4365    0.2030    0.4413
Li    Li445        0.3269    0.2610    0.9243
Li    Li446        0.2952    0.2615    0.8192
Li    Li447        0.2844    0.2781    0.9380
Li    Li448        0.3295    0.2851    0.8024
Li    Li449        0.4104    0.2270    0.9485
Li    Li450        0.4169    0.3399    0.0750
Li    Li451        0.3253    0.3596    0.1861
Li    Li452        0.4579    0.3356    0.1729
Li    Li453        0.2883    0.3579    0.0692
Li    Li454        0.2889    0.3885    0.1931
Li    Li455        0.4553    0.2987    0.0562
Li    Li456        0.3263    0.3986    0.0633
Li    Li457        0.4222    0.3046    0.1954
Li    Li458        0.3399    0.3562    0.4250
Li    Li459        0.4490    0.3138    0.3017
Li    Li460        0.4113    0.3388    0.5712
Li    Li461        0.3289    0.3612    0.6710
Li    Li462        0.4579    0.3376    0.6825
Li    Li463        0.2966    0.3644    0.5760
Li    Li464        0.3005    0.3876    0.6964
Li    Li465        0.4545    0.3120    0.5559
Li    Li466        0.4187    0.3159    0.6981
Li    Li467        0.4541    0.3368    0.9203
Li    Li468        0.2917    0.3600    0.8201
Li    Li469        0.4565    0.3123    0.8069
Li    Li470        0.3292    0.3869    0.8007
Li    Li471        0.4170    0.4400    0.0725
Li    Li472        0.3334    0.4607    0.1798
Li    Li473        0.4364    0.4280    0.1792
Li    Li474        0.3005    0.4644    0.0713
Li    Li475        0.3026    0.4823    0.1901
Li    Li476        0.4449    0.4148    0.0551
Li    Li477        0.4201    0.4096    0.1981
Li    Li478        0.3320    0.4616    0.4289
Li    Li479        0.4551    0.4397    0.4293
Li    Li480        0.2971    0.4627    0.3229
Li    Li481        0.4542    0.4147    0.3000
Li    Li482        0.3303    0.4904    0.3053
Li    Li483        0.4173    0.4139    0.4410
Li    Li484        0.4234    0.4264    0.5726
Li    Li485        0.3393    0.4510    0.7017
Li    Li486        0.3025    0.4922    0.6973
Li    Li487        0.4567    0.4129    0.5513
Li    Li488        0.4092    0.4039    0.6960
Li    Li489        0.2909    0.4920    0.9480
Li    Li490        0.4560    0.5379    0.1775
Li    Li491        0.2980    0.5885    0.2025
Li    Li492        0.4233    0.5141    0.1995
Li    Li493        0.4153    0.5323    0.3194
Li    Li494        0.4552    0.5139    0.3091
Li    Li495        0.4258    0.5092    0.4430
Li    Li496        0.2931    0.5602    0.5702
Li    Li497        0.3384    0.5858    0.5556
Li    Li498        0.3248    0.5625    0.9282
Li    Li499        0.4565    0.5433    0.9316
Li    Li500        0.2882    0.5590    0.8179
Li    Li501        0.2876    0.5893    0.9495
Li    Li502        0.4238    0.5073    0.9396
Li    Li503        0.4192    0.6383    0.0728
Li    Li504        0.4469    0.6400    0.1808
Li    Li505        0.3008    0.6656    0.0741
Li    Li506        0.2879    0.6856    0.1965
Li    Li507        0.4481    0.6157    0.0552
Li    Li508        0.3277    0.6878    0.0589
Li    Li509        0.4208    0.6112    0.1982
Li    Li510        0.3202    0.6626    0.4355
Li    Li511        0.2934    0.6904    0.4440
Li    Li512        0.4514    0.6160    0.3019
Li    Li513        0.4206    0.6134    0.4542
Li    Li514        0.4256    0.6332    0.5746
Li    Li515        0.3335    0.6702    0.6788
Li    Li516        0.4550    0.6287    0.6799
Li    Li517        0.2804    0.6956    0.6997
Li    Li518        0.4522    0.6129    0.5513
Li    Li519        0.3314    0.6816    0.5520
Li    Li520        0.4220    0.6171    0.6994
Li    Li521        0.3348    0.6606    0.9296
Li    Li522        0.4564    0.6346    0.9250
Li    Li523        0.2974    0.6699    0.8211
Li    Li524        0.4203    0.6116    0.9442
Li    Li525        0.4235    0.7381    0.0755
Li    Li526        0.2899    0.7957    0.1868
Li    Li527        0.4495    0.7169    0.0520
Li    Li528        0.3406    0.7928    0.0622
Li    Li529        0.4206    0.7299    0.3208
Li    Li530        0.4598    0.7388    0.4254
Li    Li531        0.2992    0.7662    0.3206
Li    Li532        0.4488    0.7088    0.2981
Li    Li533        0.4231    0.7369    0.5705
Li    Li534        0.4574    0.7133    0.5498
Li    Li535        0.4253    0.7131    0.6900
Li    Li536        0.3329    0.7630    0.9295
Li    Li537        0.2794    0.7991    0.9401
Li    Li538        0.4501    0.8238    0.1837
Li    Li539        0.3315    0.8644    0.4312
Li    Li540        0.4628    0.8424    0.4313
Li    Li541        0.2871    0.8630    0.3156
Li    Li542        0.2914    0.8896    0.4453
Li    Li543        0.3307    0.8843    0.3114
Li    Li544        0.3303    0.8624    0.6830
Li    Li545        0.4429    0.8436    0.6826
Li    Li546        0.3005    0.8876    0.6995
Li    Li547        0.4538    0.8127    0.5460
Li    Li548        0.3321    0.8862    0.5520
Li    Li549        0.4059    0.8065    0.7002
Li    Li550        0.3211    0.8659    0.9334
Li    Li551        0.4541    0.8345    0.9191
Li    Li552        0.2939    0.8646    0.8314
Li    Li553        0.2952    0.8777    0.9539
Li    Li554        0.4524    0.8126    0.8037
Li    Li555        0.3313    0.8880    0.7984
Li    Li556        0.3262    0.9658    0.1716
Li    Li557        0.2920    0.9629    0.0770
Li    Li558        0.3162    0.9825    0.1878
Li    Li559        0.3261    0.9576    0.4443
Li    Li560        0.2856    0.9552    0.3195
Li    Li561        0.2951    0.9891    0.4526
Li    Li562        0.4253    0.9328    0.5691
Li    Li563        0.3261    0.9493    0.6965
Li    Li564        0.3015    0.9795    0.5597
Li    Li565        0.4536    0.9131    0.5527
Li    Li566        0.4214    0.9341    0.8290
Li    Li567        0.3268    0.9560    0.9268
Li    Li568        0.4560    0.9363    0.9193
Li    Li569        0.3086    0.9719    0.8252
Li    Li570        0.4527    0.9082    0.8036
Li    Li571        0.3368    0.9860    0.8089
Li    Li572        0.4210    0.9204    0.9429
Li    Li573        0.5800    0.0669    0.1796
Li    Li574        0.7078    0.0401    0.1757
Li    Li575        0.5489    0.0624    0.0698
Li    Li576        0.5544    0.0856    0.1909
Li    Li577        0.5905    0.0838    0.0538
Li    Li578        0.6604    0.0422    0.3227
Li    Li579        0.5732    0.0590    0.4246
Li    Li580        0.5400    0.0542    0.3231
Li    Li581        0.5507    0.0923    0.4419
Li    Li582        0.7067    0.0095    0.3025
Li    Li583        0.5802    0.0859    0.3056
Li    Li584        0.5343    0.0543    0.5592
Li    Li585        0.5856    0.0707    0.9401
Li    Li586        0.7076    0.0311    0.9238
Li    Li587        0.6666    0.0075    0.9501
Li    Li588        0.6696    0.1378    0.0726
Li    Li589        0.7087    0.1339    0.1836
Li    Li590        0.5218    0.1557    0.0634
Li    Li591        0.7113    0.1126    0.0507
Li    Li592        0.5733    0.1907    0.0580
Li    Li593        0.5763    0.1568    0.4249
Li    Li594        0.5767    0.1625    0.9220
Li    Li595        0.6985    0.1390    0.9300
Li    Li596        0.5379    0.1603    0.8256
Li    Li597        0.6800    0.2317    0.0590
Li    Li598        0.7004    0.2443    0.1778
Li    Li599        0.5463    0.2604    0.0709
Li    Li600        0.5464    0.2822    0.1981
Li    Li601        0.5836    0.2895    0.0559
Li    Li602        0.7056    0.2350    0.4230
Li    Li603        0.5454    0.2585    0.3222
Li    Li604        0.6774    0.2075    0.4466
Li    Li605        0.6513    0.2425    0.5665
Li    Li606        0.5821    0.2600    0.6809
Li    Li607        0.5398    0.2626    0.5761
Li    Li608        0.5405    0.2902    0.6928
Li    Li609        0.5750    0.2852    0.5552
Li    Li610        0.5758    0.2640    0.9209
Li    Li611        0.5521    0.2738    0.8240
Li    Li612        0.5812    0.3641    0.1775
Li    Li613        0.5535    0.3769    0.1960
Li    Li614        0.6681    0.3380    0.3220
Li    Li615        0.5818    0.3666    0.4217
Li    Li616        0.7063    0.3325    0.4240
Li    Li617        0.5499    0.3541    0.3160
Li    Li618        0.7039    0.3126    0.3113
Li    Li619        0.5777    0.3902    0.2984
Li    Li620        0.6753    0.3362    0.5715
Li    Li621        0.6998    0.3245    0.6766
Li    Li622        0.5443    0.3689    0.5739
Li    Li623        0.5527    0.3872    0.6975
Li    Li624        0.7137    0.3074    0.5505
Li    Li625        0.5699    0.3894    0.5589
Li    Li626        0.6628    0.3453    0.8222
Li    Li627        0.6926    0.3300    0.9373
Li    Li628        0.5817    0.3903    0.8036
Li    Li629        0.6686    0.3124    0.9472
Li    Li630        0.5720    0.4683    0.1806
Li    Li631        0.7093    0.4406    0.1800
Li    Li632        0.5496    0.4680    0.0758
Li    Li633        0.5434    0.4923    0.2080
Li    Li634        0.5756    0.4878    0.0541
Li    Li635        0.7144    0.4427    0.4313
Li    Li636        0.5452    0.4660    0.3252
Li    Li637        0.5435    0.4806    0.4488
Li    Li638        0.6583    0.4229    0.4459
Li    Li639        0.6612    0.4412    0.5725
Li    Li640        0.5538    0.4648    0.5740
Li    Li641        0.5813    0.4897    0.5546
Li    Li642        0.5791    0.4653    0.9228
Li    Li643        0.7030    0.4341    0.9315
Li    Li644        0.6691    0.5383    0.0717
Li    Li645        0.5828    0.5646    0.1812
Li    Li646        0.5516    0.5644    0.0685
Li    Li647        0.5406    0.5908    0.1927
Li    Li648        0.5908    0.5940    0.0594
Li    Li649        0.5821    0.5617    0.4275
Li    Li650        0.7062    0.5301    0.4243
Li    Li651        0.5469    0.5673    0.3169
Li    Li652        0.5697    0.5770    0.4404
Li    Li653        0.7111    0.5024    0.3061
Li    Li654        0.5661    0.5797    0.2983
Li    Li655        0.6676    0.5098    0.4499
Li    Li656        0.7083    0.5342    0.9307
Li    Li657        0.5461    0.5864    0.9504
Li    Li658        0.6589    0.5066    0.9491
Li    Li659        0.6652    0.6337    0.0739
Li    Li660        0.6999    0.6311    0.1768
Li    Li661        0.5705    0.6812    0.0534
Li    Li662        0.6622    0.6062    0.1846
Li    Li663        0.5412    0.6623    0.5700
Li    Li664        0.5402    0.6849    0.6928
Li    Li665        0.5826    0.6952    0.5516
Li    Li666        0.6720    0.6405    0.8304
Li    Li667        0.6997    0.6370    0.9293
Li    Li668        0.6856    0.5956    0.8030
Li    Li669        0.6722    0.7333    0.0728
Li    Li670        0.7014    0.7359    0.1716
Li    Li671        0.7053    0.7159    0.0537
Li    Li672        0.6734    0.7413    0.3214
Li    Li673        0.5706    0.7566    0.4326
Li    Li674        0.6992    0.7290    0.4314
Li    Li675        0.5442    0.7595    0.3275
Li    Li676        0.5397    0.7915    0.4476
Li    Li677        0.7052    0.7172    0.2920
Li    Li678        0.5928    0.7921    0.3035
Li    Li679        0.6667    0.7065    0.4449
Li    Li680        0.7157    0.7186    0.6706
Li    Li681        0.5501    0.7703    0.5763
Li    Li682        0.6717    0.7112    0.6973
Li    Li683        0.5444    0.7609    0.8204
Li    Li684        0.5741    0.8020    0.7956
Li    Li685        0.6705    0.8327    0.0803
Li    Li686        0.5848    0.8651    0.1814
Li    Li687        0.5501    0.8861    0.2004
Li    Li688        0.7057    0.8172    0.0504
Li    Li689        0.6624    0.8139    0.1939
Li    Li690        0.5822    0.8679    0.6740
Li    Li691        0.6992    0.8432    0.6807
Li    Li692        0.5455    0.8621    0.5760
Li    Li693        0.5522    0.8906    0.7011
Li    Li694        0.6612    0.8193    0.6961
Li    Li695        0.6665    0.8398    0.8171
Li    Li696        0.7065    0.8152    0.8072
Li    Li697        0.5790    0.8888    0.8003
Li    Li698        0.6736    0.8104    0.9485
Li    Li699        0.5329    0.9584    0.3159
Li    Li700        0.5848    0.9862    0.3014
Li    Li701        0.6639    0.9408    0.5686
Li    Li702        0.5884    0.9751    0.6756
Li    Li703        0.5516    0.9882    0.6908
Li    Li704        0.7060    0.9106    0.5484
Li    Li705        0.9582    0.0403    0.1815
Li    Li706        0.7971    0.0604    0.0646
Li    Li707        0.9158    0.0420    0.3169
Li    Li708        0.9591    0.0411    0.4320
Li    Li709        0.7922    0.0663    0.3188
Li    Li710        0.9509    0.0129    0.3004
Li    Li711        0.8336    0.0960    0.2995
Li    Li712        0.9323    0.0454    0.8117
Li    Li713        0.8259    0.0623    0.9348
Li    Li714        0.9543    0.0347    0.9345
Li    Li715        0.7995    0.0677    0.8171
Li    Li716        0.7922    0.0801    0.9463
Li    Li717        0.9553    0.0088    0.8043
Li    Li718        0.8248    0.0857    0.7975
Li    Li719        0.9170    0.0176    0.9435
Li    Li720        0.9151    0.1370    0.0597
Li    Li721        0.9550    0.1405    0.1830
Li    Li722        0.9645    0.0995    0.0691
Li    Li723        0.8311    0.1900    0.0488
Li    Li724        0.9179    0.1166    0.1945
Li    Li725        0.9228    0.1405    0.3143
Li    Li726        0.8248    0.1669    0.4257
Li    Li727        0.9611    0.1356    0.4272
Li    Li728        0.7899    0.1872    0.4419
Li    Li729        0.9636    0.1139    0.3030
Li    Li730        0.9289    0.1416    0.8226
Li    Li731        0.8338    0.2643    0.1785
Li    Li732        0.9528    0.2406    0.1670
Li    Li733        0.9229    0.2104    0.1971
Li    Li734        0.9204    0.2365    0.3250
Li    Li735        0.7814    0.2990    0.4417
Li    Li736        0.9517    0.2074    0.2990
Li    Li737        0.8353    0.2895    0.3028
Li    Li738        0.8315    0.2701    0.6696
Li    Li739        0.7951    0.2601    0.5724
Li    Li740        0.7969    0.2884    0.6967
Li    Li741        0.8324    0.2977    0.5547
Li    Li742        0.8335    0.2546    0.9259
Li    Li743        0.9486    0.2438    0.9331
Li    Li744        0.7914    0.2823    0.9479
Li    Li745        0.8281    0.2871    0.8051
Li    Li746        0.9099    0.3350    0.0692
Li    Li747        0.8228    0.3614    0.1738
Li    Li748        0.7936    0.3898    0.2008
Li    Li749        0.9627    0.3290    0.0756
Li    Li750        0.8398    0.3846    0.0564
Li    Li751        0.9250    0.3121    0.1956
Li    Li752        0.9222    0.3412    0.3266
Li    Li753        0.8314    0.3623    0.4225
Li    Li754        0.9518    0.3387    0.4293
Li    Li755        0.8021    0.3662    0.3191
Li    Li756        0.7988    0.3884    0.4446
Li    Li757        0.9550    0.3125    0.2969
Li    Li758        0.9248    0.3384    0.5672
Li    Li759        0.8270    0.3607    0.6843
Li    Li760        0.9635    0.3429    0.6796
Li    Li761        0.7952    0.3659    0.5762
Li    Li762        0.9595    0.3111    0.5578
Li    Li763        0.8244    0.3911    0.5556
Li    Li764        0.9190    0.3316    0.8154
Li    Li765        0.8228    0.3710    0.9268
Li    Li766        0.9614    0.3307    0.9310
Li    Li767        0.7995    0.3666    0.8266
Li    Li768        0.7808    0.3950    0.9468
Li    Li769        0.8312    0.3876    0.8036
Li    Li770        0.9162    0.4413    0.0677
Li    Li771        0.8254    0.4620    0.1757
Li    Li772        0.7934    0.4529    0.0463
Li    Li773        0.7821    0.4894    0.1893
Li    Li774        0.8349    0.4889    0.0487
Li    Li775        0.9199    0.4376    0.3259
Li    Li776        0.8279    0.4714    0.4302
Li    Li777        0.9579    0.4389    0.4311
Li    Li778        0.7961    0.4602    0.3271
Li    Li779        0.7931    0.4889    0.4488
Li    Li780        0.9520    0.4102    0.3086
Li    Li781        0.8427    0.4531    0.6922
Li    Li782        0.7984    0.4839    0.6960
Li    Li783        0.9197    0.4156    0.7019
Li    Li784        0.9185    0.4442    0.8225
Li    Li785        0.8149    0.4696    0.9291
Li    Li786        0.9585    0.4095    0.9267
Li    Li787        0.7862    0.4649    0.8077
Li    Li788        0.7965    0.4869    0.9501
Li    Li789        0.9570    0.4161    0.8003
Li    Li790        0.9155    0.4204    0.9439
Li    Li791        0.7978    0.5607    0.0759
Li    Li792        0.9152    0.5189    0.4415
Li    Li793        0.7998    0.5621    0.5649
Li    Li794        0.7976    0.5860    0.6988
Li    Li795        0.8317    0.5875    0.5527
Li    Li796        0.9104    0.5102    0.6965
Li    Li797        0.9271    0.6314    0.0736
Li    Li798        0.9521    0.6349    0.1800
Li    Li799        0.9525    0.6135    0.0550
Li    Li800        0.9289    0.6086    0.1979
Li    Li801        0.9579    0.6390    0.4301
Li    Li802        0.7945    0.6867    0.4390
Li    Li803        0.9537    0.6134    0.2944
Li    Li804        0.9073    0.6141    0.4404
Li    Li805        0.9641    0.6410    0.6857
Li    Li806        0.7963    0.6805    0.6942
Li    Li807        0.9540    0.6158    0.5508
Li    Li808        0.8323    0.6886    0.5475
Li    Li809        0.9092    0.6357    0.8196
Li    Li810        0.9592    0.6402    0.9194
Li    Li811        0.8035    0.6636    0.8219
Li    Li812        0.7990    0.6850    0.9512
Li    Li813        0.9581    0.6103    0.8055
Li    Li814        0.8251    0.6985    0.8202
Li    Li815        0.9221    0.6118    0.9521
Li    Li816        0.8332    0.7619    0.1747
Li    Li817        0.9530    0.7341    0.1718
Li    Li818        0.7944    0.7612    0.0749
Li    Li819        0.7888    0.7920    0.1879
Li    Li820        0.9695    0.7001    0.0644
Li    Li821        0.9239    0.7126    0.2029
Li    Li822        0.9560    0.7411    0.4319
Li    Li823        0.8268    0.7696    0.6752
Li    Li824        0.9603    0.7330    0.6779
Li    Li825        0.7918    0.7902    0.6880
Li    Li826        0.9648    0.7058    0.5568
Li    Li827        0.8387    0.7936    0.5567
Li    Li828        0.9106    0.7225    0.6968
Li    Li829        0.9219    0.7369    0.8095
Li    Li830        0.8249    0.7682    0.9265
Li    Li831        0.9630    0.7304    0.9220
Li    Li832        0.7963    0.7610    0.8248
Li    Li833        0.7924    0.7871    0.9336
Li    Li834        0.9244    0.7108    0.9377
Li    Li835        0.9212    0.8381    0.0685
Li    Li836        0.8331    0.8553    0.1887
Li    Li837        0.9464    0.8422    0.1776
Li    Li838        0.7920    0.8565    0.0638
Li    Li839        0.9537    0.8112    0.0586
Li    Li840        0.8251    0.8729    0.4251
Li    Li841        0.9601    0.8353    0.4303
Li    Li842        0.7953    0.8732    0.3280
Li    Li843        0.9186    0.8080    0.4451
Li    Li844        0.9546    0.8138    0.7970
Li    Li845        0.8374    0.9697    0.6920
Li    Li846        0.9031    0.8993    0.6949
Li    Li847        0.8342    0.9771    0.8036
Li    Li848        0.0024    0.0662    0.0952
Li    Li849        0.0019    0.0792    0.1836
Li    Li850        0.1374    0.0315    0.3125
Li    Li851        0.1099    0.0643    0.4447
Li    Li852        0.0135    0.0615    0.3148
Li    Li853        0.1172    0.0873    0.2909
Li    Li854        0.1261    0.0043    0.4433
Li    Li855        0.1246    0.0871    0.5564
Li    Li856        0.0132    0.0685    0.8234
Li    Li857        0.0196    0.1566    0.0597
Li    Li858        0.1304    0.1255    0.2005
Li    Li859        0.2724    0.1262    0.4446
Li    Li860        0.0156    0.1641    0.3075
Li    Li861        0.0059    0.1779    0.4500
Li    Li862        0.2479    0.1037    0.3125
Li    Li863        0.1223    0.1182    0.4376
Li    Li864        0.1396    0.1466    0.5666
Li    Li865        0.2419    0.1374    0.6811
Li    Li866        0.1036    0.2905    0.0524
Li    Li867        0.1265    0.2552    0.4379
Li    Li868        0.9759    0.2855    0.4547
Li    Li869        0.2414    0.2348    0.6928
Li    Li870        0.1046    0.2450    0.9449
Li    Li871        0.0122    0.2812    0.9279
Li    Li872        0.1328    0.3316    0.0577
Li    Li873        0.1162    0.3569    0.1850
Li    Li874        0.2617    0.3400    0.1636
Li    Li875        0.9952    0.3652    0.0747
Li    Li876        0.2198    0.2941    0.0911
Li    Li877        0.1358    0.3600    0.4235
Li    Li878        0.0027    0.3642    0.3193
Li    Li879        0.1143    0.3892    0.3013
Li    Li880        0.2427    0.3324    0.6897
Li    Li881        0.1238    0.3630    0.9271
Li    Li882        0.0069    0.3832    0.9377
Li    Li883        0.1377    0.3299    0.9481
Li    Li884        0.2547    0.4396    0.1828
Li    Li885        0.1235    0.4146    0.1910
Li    Li886        0.1105    0.4613    0.4437
Li    Li887        0.2449    0.4378    0.4278
Li    Li888        0.1243    0.4826    0.2989
Li    Li889        0.1412    0.4215    0.4768
Li    Li890        0.2228    0.4464    0.6809
Li    Li891        0.2348    0.4417    0.5746
Li    Li892        0.1321    0.4110    0.6844
Li    Li893        0.1446    0.5090    0.4378
Li    Li894        0.2413    0.5214    0.5476
Li    Li895        0.1216    0.5820    0.5359
Li    Li896        0.1335    0.6352    0.0669
Li    Li897        0.1292    0.6687    0.1761
Li    Li898        0.2437    0.6364    0.1804
Li    Li899        0.9874    0.6877    0.2048
Li    Li900        0.0124    0.6735    0.3051
Li    Li901        0.0186    0.6946    0.4500
Li    Li902        0.1180    0.6864    0.3031
Li    Li903        0.1153    0.6563    0.6820
Li    Li904        0.2392    0.6216    0.5587
Li    Li905        0.1179    0.6395    0.8131
Li    Li906        0.1092    0.6893    0.8091
Li    Li907        0.1314    0.7120    0.1998
Li    Li908        0.0151    0.7833    0.4493
Li    Li909        0.2731    0.7067    0.3159
Li    Li910        0.1162    0.7628    0.6793
Li    Li911        0.1376    0.7175    0.6957
Li    Li912        0.1100    0.8009    0.8194
Li    Li913        0.9745    0.8844    0.2124
Li    Li914        0.1312    0.8588    0.4385
Li    Li915        0.2347    0.8412    0.4417
Li    Li916        0.1199    0.8972    0.3130
Li    Li917        0.2450    0.8361    0.9321
Li    Li918        0.0031    0.8605    0.8215
Li    Li919        0.2405    0.8140    0.8190
Li    Li920        0.1152    0.8775    0.8212
Li    Li921        0.1132    0.9839    0.0748
Li    Li922        0.1377    0.9372    0.3202
Li    Li923        0.1255    0.9110    0.4355
Li    Li924        0.2445    0.9428    0.6728
Li    Li925        0.1324    0.9339    0.8201
Li    Li926        0.0216    0.9825    0.8410
Li    Li927        0.0059    0.9826    0.9442
Li    Li928        0.1167    0.9881    0.8080
Li    Li929        0.3752    0.0387    0.0849
Li    Li930        0.4898    0.0394    0.1790
Li    Li931        0.2708    0.1016    0.1735
Li    Li932        0.3671    0.0432    0.3244
Li    Li933        0.3529    0.0566    0.4271
Li    Li934        0.4919    0.0165    0.3138
Li    Li935        0.3841    0.1145    0.1778
Li    Li936        0.2608    0.1608    0.3163
Li    Li937        0.2522    0.1849    0.6933
Li    Li938        0.4919    0.1106    0.7901
Li    Li939        0.3627    0.2714    0.1785
Li    Li940        0.5097    0.2396    0.1731
Li    Li941        0.2781    0.2902    0.1832
Li    Li942        0.4927    0.2068    0.0511
Li    Li943        0.3765    0.2131    0.2030
Li    Li944        0.2522    0.2576    0.8174
Li    Li945        0.2595    0.2923    0.9480
Li    Li946        0.3768    0.2972    0.8278
Li    Li947        0.3664    0.3644    0.1694
Li    Li948        0.2617    0.3758    0.1807
Li    Li949        0.4944    0.3144    0.0664
Li    Li950        0.2662    0.3844    0.4488
Li    Li951        0.3873    0.3341    0.5863
Li    Li952        0.3586    0.3571    0.6807
Li    Li953        0.4810    0.3422    0.6786
Li    Li954        0.2572    0.3601    0.5714
Li    Li955        0.4976    0.3306    0.9358
Li    Li956        0.3662    0.4386    0.0647
Li    Li957        0.5147    0.4334    0.1637
Li    Li958        0.2781    0.5056    0.1812
Li    Li959        0.4886    0.4097    0.0611
Li    Li960        0.4948    0.4474    0.4303
Li    Li961        0.3651    0.4886    0.2923
Li    Li962        0.3874    0.4393    0.5648
Li    Li963        0.3652    0.4616    0.6776
Li    Li964        0.2640    0.4931    0.6812
Li    Li965        0.3830    0.4097    0.6857
Li    Li966        0.2313    0.4940    0.9332
Li    Li967        0.4890    0.5414    0.1776
Li    Li968        0.2768    0.6074    0.1824
Li    Li969        0.3603    0.5593    0.9384
Li    Li970        0.3808    0.6205    0.0684
Li    Li971        0.2456    0.6559    0.0751
Li    Li972        0.2538    0.6849    0.1677
Li    Li973        0.4794    0.6059    0.0609
Li    Li974        0.3682    0.6911    0.0649
Li    Li975        0.3872    0.6233    0.2127
Li    Li976        0.3771    0.6411    0.3233
Li    Li977        0.3875    0.6386    0.5611
Li    Li978        0.3772    0.6639    0.6994
Li    Li979        0.4853    0.6354    0.6755
Li    Li980        0.2586    0.6834    0.6849
Li    Li981        0.4022    0.6028    0.6811
Li    Li982        0.5000    0.6420    0.9370
Li    Li983        0.2624    0.6886    0.9315
Li    Li984        0.3841    0.6161    0.9552
Li    Li985        0.4005    0.7451    0.0566
Li    Li986        0.2657    0.7828    0.2228
Li    Li987        0.4843    0.7130    0.0474
Li    Li988        0.3706    0.7801    0.0564
Li    Li989        0.3841    0.7089    0.1960
Li    Li990        0.3796    0.7382    0.3171
Li    Li991        0.4843    0.7348    0.4289
Li    Li992        0.2549    0.7656    0.3135
Li    Li993        0.4932    0.7077    0.3155
Li    Li994        0.3738    0.7324    0.5627
Li    Li995        0.4917    0.7363    0.6788
Li    Li996        0.4958    0.6976    0.5573
Li    Li997        0.3685    0.7608    0.9258
Li    Li998        0.3855    0.8247    0.0759
Li    Li999        0.4922    0.8347    0.1821
Li    Li1000        0.4981    0.8448    0.4280
Li    Li1001        0.3692    0.8672    0.6724
Li    Li1002        0.4976    0.8369    0.6829
Li    Li1003        0.2629    0.8879    0.6975
Li    Li1004        0.5113    0.8150    0.5560
Li    Li1005        0.2553    0.8642    0.8153
Li    Li1006        0.4875    0.8133    0.8029
Li    Li1007        0.3584    0.8892    0.8133
Li    Li1008        0.2450    0.9648    0.0561
Li    Li1009        0.2556    0.9888    0.1880
Li    Li1010        0.3639    0.9598    0.4360
Li    Li1011        0.2569    0.9665    0.3230
Li    Li1012        0.2562    0.9895    0.4466
Li    Li1013        0.3713    0.9368    0.5748
Li    Li1014        0.3721    0.9574    0.6712
Li    Li1015        0.5208    0.9347    0.6827
Li    Li1016        0.3686    0.9649    0.9204
Li    Li1017        0.4865    0.9361    0.9435
Li    Li1018        0.3840    0.9086    0.9435
Li    Li1019        0.5033    0.0559    0.0902
Li    Li1020        0.5099    0.0859    0.2064
Li    Li1021        0.6224    0.0857    0.0556
Li    Li1022        0.5113    0.0600    0.3181
Li    Li1023        0.7452    0.0158    0.3054
Li    Li1024        0.6121    0.0694    0.9197
Li    Li1025        0.7491    0.0394    0.9434
Li    Li1026        0.6311    0.0159    0.9374
Li    Li1027        0.6335    0.1380    0.0532
Li    Li1028        0.7388    0.1109    0.0580
Li    Li1029        0.6116    0.2017    0.0581
Li    Li1030        0.6195    0.1583    0.4227
Li    Li1031        0.5073    0.1919    0.4363
Li    Li1032        0.6398    0.1873    0.5451
Li    Li1033        0.7481    0.1410    0.9342
Li    Li1034        0.5101    0.1666    0.8048
Li    Li1035        0.6065    0.1056    0.9559
Li    Li1036        0.6355    0.2398    0.0637
Li    Li1037        0.7484    0.2614    0.4791
Li    Li1038        0.5084    0.2667    0.3171
Li    Li1039        0.6381    0.2096    0.4448
Li    Li1040        0.5076    0.2609    0.5623
Li    Li1041        0.5163    0.2942    0.6840
Li    Li1042        0.5097    0.2638    0.8161
Li    Li1043        0.5107    0.2912    0.9656
Li    Li1044        0.5085    0.3913    0.1927
Li    Li1045        0.7413    0.3384    0.4336
Li    Li1046        0.6137    0.3440    0.5758
Li    Li1047        0.6177    0.3609    0.6833
Li    Li1048        0.4987    0.3859    0.6966
Li    Li1049        0.7573    0.3369    0.9308
Li    Li1050        0.5137    0.3625    0.8230
Li    Li1051        0.6190    0.3801    0.7817
Li    Li1052        0.6132    0.4610    0.1920
Li    Li1053        0.5148    0.4785    0.2090
Li    Li1054        0.6153    0.4793    0.0466
Li    Li1055        0.7390    0.4390    0.4314
Li    Li1056        0.4774    0.4873    0.4356
Li    Li1057        0.7634    0.4255    0.3244
Li    Li1058        0.5107    0.4692    0.5839
Li    Li1059        0.6264    0.4575    0.9278
Li    Li1060        0.6295    0.5368    0.0767
Li    Li1061        0.5161    0.5956    0.1832
Li    Li1062        0.5026    0.5541    0.3195
Li    Li1063        0.7477    0.4993    0.3118
Li    Li1064        0.5175    0.5996    0.9387
Li    Li1065        0.6312    0.5216    0.9557
Li    Li1066        0.6430    0.6364    0.1019
Li    Li1067        0.7327    0.6117    0.1909
Li    Li1068        0.6224    0.6837    0.0566
Li    Li1069        0.5148    0.6590    0.3219
Li    Li1070        0.7646    0.6396    0.6812
Li    Li1071        0.7394    0.6311    0.8234
Li    Li1072        0.7425    0.7117    0.0495
Li    Li1073        0.7650    0.7377    0.4190
Li    Li1074        0.5047    0.7579    0.3240
Li    Li1075        0.5122    0.7932    0.4275
Li    Li1076        0.7491    0.7145    0.3049
Li    Li1077        0.6429    0.7078    0.6903
Li    Li1078        0.5039    0.7621    0.8123
Li    Li1079        0.7474    0.8208    0.0561
Li    Li1080        0.6292    0.8217    0.3204
Li    Li1081        0.5070    0.8666    0.5641
Li    Li1082        0.6363    0.8183    0.7194
Li    Li1083        0.6402    0.8430    0.8152
Li    Li1084        0.7264    0.8543    0.9397
Li    Li1085        0.5203    0.8680    0.8204
Li    Li1086        0.6358    0.8192    0.9344
Li    Li1087        0.6205    0.9838    0.2967
Li    Li1088        0.5053    0.9859    0.6898
Li    Li1089        0.7439    0.9157    0.5507
Li    Li1090        0.0080    0.0425    0.1843
Li    Li1091        0.7442    0.0676    0.0633
Li    Li1092        0.9906    0.0365    0.4156
Li    Li1093        0.0053    0.0091    0.3047
Li    Li1094        0.8803    0.0169    0.6872
Li    Li1095        0.0001    0.0360    0.9200
Li    Li1096        0.0164    0.0110    0.7951
Li    Li1097        0.8715    0.0828    0.7878
Li    Li1098        0.8801    0.1414    0.0618
Li    Li1099        0.7526    0.1613    0.0745
Li    Li1100        0.9931    0.1179    0.0642
Li    Li1101        0.8719    0.1510    0.3251
Li    Li1102        0.7676    0.1734    0.3348
Li    Li1103        0.7586    0.1871    0.4261
Li    Li1104        0.8754    0.1201    0.4521
Li    Li1105        0.9013    0.1513    0.8110
Li    Li1106        0.7577    0.1884    0.9549
Li    Li1107        0.8525    0.2041    0.8132
Li    Li1108        0.8716    0.2626    0.1584
Li    Li1109        0.9823    0.2448    0.1905
Li    Li1110        0.9995    0.2406    0.4239
Li    Li1111        0.7554    0.2845    0.4363
Li    Li1112        0.9968    0.2148    0.3039
Li    Li1113        0.7695    0.2900    0.6912
Li    Li1114        0.8643    0.2930    0.5658
Li    Li1115        0.8627    0.2474    0.8296
Li    Li1116        0.9803    0.2524    0.9407
Li    Li1117        0.8649    0.2936    0.8100
Li    Li1118        0.8717    0.3558    0.1824
Li    Li1119        0.7587    0.3928    0.1869
Li    Li1120        0.9914    0.3176    0.0585
Li    Li1121        0.8709    0.3866    0.0560
Li    Li1122        0.8924    0.3068    0.1903
Li    Li1123        0.8881    0.3437    0.3082
Li    Li1124        0.7514    0.3693    0.3309
Li    Li1125        0.8599    0.3732    0.6632
Li    Li1126        0.7661    0.3808    0.6810
Li    Li1127        0.8675    0.3838    0.5542
Li    Li1128        0.8717    0.3565    0.9337
Li    Li1129        0.9898    0.3335    0.9441
Li    Li1130        0.7814    0.3458    0.8187
Li    Li1131        0.8650    0.3779    0.8046
Li    Li1132        0.8737    0.4360    0.0457
Li    Li1133        0.7581    0.4647    0.0589
Li    Li1134        0.8681    0.4846    0.0595
Li    Li1135        0.8861    0.4568    0.4285
Li    Li1136        0.7493    0.4692    0.3297
Li    Li1137        0.8801    0.4114    0.6986
Li    Li1138        0.8787    0.4334    0.8099
Li    Li1139        0.9846    0.4267    0.9434
Li    Li1140        0.7554    0.4825    0.9494
Li    Li1141        0.8548    0.5591    0.1829
Li    Li1142        0.7442    0.5618    0.0683
Li    Li1143        0.8645    0.5923    0.3125
Li    Li1144        0.8927    0.4908    0.4215
Li    Li1145        0.7633    0.5701    0.5526
Li    Li1146        0.7603    0.5841    0.6797
Li    Li1147        0.8649    0.6646    0.4253
Li    Li1148        0.9911    0.6157    0.3065
Li    Li1149        0.0076    0.6510    0.6789
Li    Li1150        0.7618    0.6809    0.6884
Li    Li1151        0.0086    0.6205    0.5501
Li    Li1152        0.8688    0.6877    0.5561
Li    Li1153        0.9888    0.6426    0.9380
Li    Li1154        0.8642    0.6784    0.8180
Li    Li1155        0.8704    0.7611    0.1810
Li    Li1156        0.7580    0.7815    0.1738
Li    Li1157        0.0016    0.7095    0.0484
Li    Li1158        0.8893    0.7212    0.2122
Li    Li1159        0.0090    0.7415    0.4337
Li    Li1160        0.8806    0.7588    0.9312
Li    Li1161        0.7526    0.7783    0.9329
Li    Li1162        0.9013    0.6941    0.9171
Li    Li1163        0.8566    0.8517    0.1883
Li    Li1164        0.9919    0.8175    0.1687
Li    Li1165        0.8915    0.8059    0.1959
Li    Li1166        0.8707    0.8682    0.4308
Li    Li1167        0.9923    0.8352    0.4508
Li    Li1168        0.8939    0.8026    0.4343
Li    Li1169        0.9925    0.8095    0.8152
Li    Li1170        0.9944    0.9037    0.3067
Li    Li1171        0.8697    0.9657    0.6912
Li    Li1172        0.2081    0.0426    0.2337
Li    Li1173        0.2084    0.9915    0.1136
Li    Li1174        0.0406    0.0999    0.1298
Li    Li1175        0.0775    0.0852    0.1008
Li    Li1176        0.0822    0.0537    0.5061
Li    Li1177        0.1714    0.0480    0.2667
Li    Li1178        0.2144    0.0465    0.4823
Li    Li1179        0.0330    0.1030    0.4005
Li    Li1180        0.1555    0.0097    0.3730
Li    Li1181        0.0785    0.1051    0.3657
Li    Li1182        0.0438    0.0566    0.5123
Li    Li1183        0.0865    0.1011    0.5990
Li    Li1184        0.1993    0.1397    0.2393
Li    Li1185        0.1006    0.1445    0.4966
Li    Li1186        0.0466    0.1510    0.2737
Li    Li1187        0.2095    0.1067    0.3601
Li    Li1188        0.1680    0.0974    0.3904
Li    Li1189        0.0824    0.2065    0.3500
Li    Li1190        0.0513    0.1538    0.5175
Li    Li1191        0.2053    0.1470    0.7277
Li    Li1192        0.2065    0.1065    0.6141
Li    Li1193        0.0733    0.1583    0.9963
Li    Li1194        0.0429    0.2488    0.2720
Li    Li1195        0.0878    0.2983    0.3670
Li    Li1196        0.1653    0.2524    0.5008
Li    Li1197        0.0429    0.2488    0.5154
Li    Li1198        0.0508    0.2959    0.6376
Li    Li1199        0.1617    0.2169    0.6403
Li    Li1200        0.0823    0.2933    0.6093
Li    Li1201        0.0843    0.2503    0.9836
Li    Li1202        0.0471    0.3862    0.1433
Li    Li1203        0.1622    0.3408    0.2661
Li    Li1204        0.0539    0.3671    0.2492
Li    Li1205        0.2069    0.3385    0.4756
Li    Li1206        0.2021    0.3160    0.3598
Li    Li1207        0.0467    0.3901    0.3852
Li    Li1208        0.1661    0.3046    0.3878
Li    Li1209        0.1959    0.3029    0.6290
Li    Li1210        0.0756    0.3545    0.9859
Li    Li1211        0.1627    0.3327    0.7614
Li    Li1212        0.2062    0.3058    0.8596
Li    Li1213        0.2022    0.4067    0.1072
Li    Li1214        0.0441    0.4915    0.1497
Li    Li1215        0.0710    0.4882    0.1075
Li    Li1216        0.1647    0.4403    0.2628
Li    Li1217        0.0440    0.4426    0.2607
Li    Li1218        0.2064    0.4471    0.4842
Li    Li1219        0.2085    0.4114    0.3556
Li    Li1220        0.1541    0.3842    0.3749
Li    Li1221        0.0837    0.4937    0.3556
Li    Li1222        0.2020    0.4464    0.7283
Li    Li1223        0.1670    0.4138    0.6448
Li    Li1224        0.2113    0.4518    0.9864
Li    Li1225        0.2130    0.4048    0.8663
Li    Li1226        0.0880    0.5037    0.8487
Li    Li1227        0.1747    0.5392    0.2640
Li    Li1228        0.2022    0.4993    0.3538
Li    Li1229        0.2080    0.5026    0.6100
Li    Li1230        0.0386    0.5916    0.6405
Li    Li1231        0.1766    0.5139    0.6432
Li    Li1232        0.1704    0.5581    0.7562
Li    Li1233        0.2086    0.4916    0.8501
Li    Li1234        0.0858    0.6572    0.2391
Li    Li1235        0.1716    0.6518    0.0213
Li    Li1236        0.0372    0.6521    0.9978
Li    Li1237        0.2058    0.6158    0.1078
Li    Li1238        0.0412    0.7011    0.1424
Li    Li1239        0.1643    0.6039    0.1292
Li    Li1240        0.0828    0.6578    0.4716
Li    Li1241        0.2112    0.6448    0.4835
Li    Li1242        0.1727    0.6458    0.5064
Li    Li1243        0.0433    0.6961    0.6407
Li    Li1244        0.0837    0.6885    0.6031
Li    Li1245        0.0941    0.6521    0.9951
Li    Li1246        0.1994    0.6377    0.9980
Li    Li1247        0.1732    0.7513    0.9968
Li    Li1248        0.2049    0.7432    0.2295
Li    Li1249        0.0744    0.7813    0.1341
Li    Li1250        0.0242    0.7632    0.2537
Li    Li1251        0.0889    0.7901    0.3700
Li    Li1252        0.0681    0.7693    0.7423
Li    Li1253        0.0481    0.7915    0.6457
Li    Li1254        0.0815    0.8007    0.6064
Li    Li1255        0.0827    0.7949    0.8584
Li    Li1256        0.0496    0.8478    0.2717
Li    Li1257        0.2062    0.8532    0.4874
Li    Li1258        0.1694    0.8026    0.3950
Li    Li1259        0.0465    0.8611    0.7646
Li    Li1260        0.0430    0.9024    0.8972
Li    Li1261        0.1765    0.8236    0.8898
Li    Li1262        0.0432    0.9674    0.0224
Li    Li1263        0.0808    0.9548    0.4816
Li    Li1264        0.1996    0.9109    0.3549
Li    Li1265        0.1659    0.8999    0.3863
Li    Li1266        0.0444    0.9460    0.7698
Li    Li1267        0.2080    0.9393    0.9841
Li    Li1268        0.2099    0.8918    0.8660
Li    Li1269        0.1721    0.8958    0.8921
Li    Li1270        0.3340    0.0556    0.2327
Li    Li1271        0.4452    0.0178    0.1174
Li    Li1272        0.4261    0.0372    0.2683
Li    Li1273        0.4497    0.0364    0.4854
Li    Li1274        0.4576    0.0368    0.9772
Li    Li1275        0.4232    0.0019    0.8805
Li    Li1276        0.4166    0.1433    0.0243
Li    Li1277        0.3015    0.1973    0.1460
Li    Li1278        0.3216    0.1985    0.1177
Li    Li1279        0.4678    0.0947    0.3654
Li    Li1280        0.4210    0.1099    0.3925
Li    Li1281        0.3218    0.1632    0.7347
Li    Li1282        0.4154    0.1478    0.7577
Li    Li1283        0.4561    0.1510    0.9873
Li    Li1284        0.4241    0.0914    0.8845
Li    Li1285        0.4184    0.2498    0.0187
Li    Li1286        0.2854    0.2479    0.0134
Li    Li1287        0.4558    0.1972    0.1093
Li    Li1288        0.4291    0.2019    0.1434
Li    Li1289        0.3265    0.2980    0.1246
Li    Li1290        0.4161    0.2435    0.2638
Li    Li1291        0.3298    0.2636    0.9700
Li    Li1292        0.2698    0.2544    0.7494
Li    Li1293        0.4236    0.2142    0.9063
Li    Li1294        0.3322    0.2935    0.8608
Li    Li1295        0.3315    0.3442    0.2530
Li    Li1296        0.2954    0.3570    0.0099
Li    Li1297        0.4567    0.3420    0.2348
Li    Li1298        0.4352    0.2932    0.1192
Li    Li1299        0.2961    0.3852    0.1412
Li    Li1300        0.3323    0.4021    0.1130
Li    Li1301        0.4179    0.3393    0.2672
Li    Li1302        0.4604    0.3038    0.3607
Li    Li1303        0.4172    0.3407    0.5172
Li    Li1304        0.3025    0.3600    0.5097
Li    Li1305        0.4540    0.3529    0.7323
Li    Li1306        0.4480    0.3025    0.6119
Li    Li1307        0.2950    0.3866    0.6426
Li    Li1308        0.2868    0.3506    0.7630
Li    Li1309        0.4204    0.3111    0.8971
Li    Li1310        0.2988    0.4564    0.0101
Li    Li1311        0.4542    0.4433    0.2421
Li    Li1312        0.4596    0.4091    0.1062
Li    Li1313        0.3364    0.5091    0.1165
Li    Li1314        0.4184    0.4393    0.2720
Li    Li1315        0.4525    0.4509    0.4822
Li    Li1316        0.3007    0.4919    0.3924
Li    Li1317        0.2935    0.4899    0.6414
Li    Li1318        0.3286    0.4471    0.9842
Li    Li1319        0.3310    0.5631    0.2347
Li    Li1320        0.4577    0.5422    0.2372
Li    Li1321        0.4608    0.5012    0.1178
Li    Li1322        0.4136    0.5057    0.1437
Li    Li1323        0.4098    0.4941    0.4029
Li    Li1324        0.2938    0.5556    0.5246
Li    Li1325        0.3306    0.5639    0.9799
Li    Li1326        0.2920    0.5548    0.7618
Li    Li1327        0.2940    0.5998    0.8738
Li    Li1328        0.3230    0.6612    0.2355
Li    Li1329        0.4541    0.6380    0.2325
Li    Li1330        0.4495    0.5923    0.1004
Li    Li1331        0.2868    0.6873    0.1333
Li    Li1332        0.3301    0.6972    0.1164
Li    Li1333        0.3294    0.6566    0.4816
Li    Li1334        0.4419    0.6408    0.4816
Li    Li1335        0.2965    0.6881    0.3917
Li    Li1336        0.3313    0.6536    0.7498
Li    Li1337        0.2864    0.6535    0.5179
Li    Li1338        0.4562    0.6141    0.6057
Li    Li1339        0.2890    0.6532    0.7655
Li    Li1340        0.4715    0.6455    0.9958
Li    Li1341        0.3232    0.6906    0.8672
Li    Li1342        0.3362    0.7568    0.2354
Li    Li1343        0.4214    0.7516    0.0158
Li    Li1344        0.4129    0.7470    0.2604
Li    Li1345        0.3005    0.7458    0.2672
Li    Li1346        0.4582    0.7512    0.7274
Li    Li1347        0.4554    0.7136    0.6042
Li    Li1348        0.4615    0.7498    0.9811
Li    Li1349        0.3294    0.7999    0.8686
Li    Li1350        0.2896    0.8511    0.0123
Li    Li1351        0.4596    0.8417    0.2294
Li    Li1352        0.4130    0.8543    0.2725
Li    Li1353        0.4565    0.8493    0.4790
Li    Li1354        0.4499    0.7951    0.3601
Li    Li1355        0.2978    0.8596    0.5176
Li    Li1356        0.4464    0.8091    0.6091
Li    Li1357        0.3224    0.9032    0.6088
Li    Li1358        0.2937    0.8539    0.7600
Li    Li1359        0.4553    0.8073    0.8595
Li    Li1360        0.4239    0.7968    0.8824
Li    Li1361        0.4315    0.9538    0.0054
Li    Li1362        0.2928    0.9582    0.0185
Li    Li1363        0.3395    0.9959    0.3697
Li    Li1364        0.3378    0.9536    0.7500
Li    Li1365        0.4155    0.9437    0.5219
Li    Li1366        0.2958    0.9579    0.7635
Li    Li1367        0.4617    0.9567    0.9811
Li    Li1368        0.5431    0.0534    0.0166
Li    Li1369        0.7072    0.0505    0.2305
Li    Li1370        0.5415    0.0956    0.1377
Li    Li1371        0.5757    0.0447    0.4803
Li    Li1372        0.5423    0.0978    0.3943
Li    Li1373        0.5278    0.0481    0.4963
Li    Li1374        0.5836    0.0453    0.9754
Li    Li1375        0.5306    0.1482    0.0015
Li    Li1376        0.7111    0.0930    0.1080
Li    Li1377        0.6677    0.0964    0.1412
Li    Li1378        0.6977    0.1451    0.9980
Li    Li1379        0.6699    0.2087    0.1353
Li    Li1380        0.5411    0.2524    0.2576
Li    Li1381        0.7067    0.2460    0.4873
Li    Li1382        0.7074    0.2086    0.3546
Li    Li1383        0.5890    0.2964    0.3683
Li    Li1384        0.6722    0.2403    0.5215
Li    Li1385        0.5478    0.2955    0.8913
Li    Li1386        0.5751    0.4051    0.1096
Li    Li1387        0.5851    0.3507    0.4870
Li    Li1388        0.5452    0.3502    0.2602
Li    Li1389        0.5477    0.3954    0.3928
Li    Li1390        0.6650    0.3415    0.5128
Li    Li1391        0.6981    0.3511    0.7293
Li    Li1392        0.7085    0.3068    0.5957
Li    Li1393        0.5476    0.3835    0.6387
Li    Li1394        0.7000    0.3532    0.9827
Li    Li1395        0.6645    0.3004    0.8931
Li    Li1396        0.6573    0.4403    0.0062
Li    Li1397        0.5415    0.4987    0.3906
Li    Li1398        0.5837    0.4916    0.3586
Li    Li1399        0.7155    0.4014    0.5881
Li    Li1400        0.5795    0.5010    0.6083
Li    Li1401        0.5887    0.4509    0.9898
Li    Li1402        0.7085    0.4528    0.9841
Li    Li1403        0.6972    0.3968    0.8618
Li    Li1404        0.5744    0.5546    0.2398
Li    Li1405        0.7026    0.5104    0.1082
Li    Li1406        0.5413    0.6025    0.3914
Li    Li1407        0.6734    0.4975    0.3910
Li    Li1408        0.5777    0.5449    0.9821
Li    Li1409        0.5430    0.6019    0.8914
Li    Li1410        0.5384    0.6544    0.0064
Li    Li1411        0.6725    0.6139    0.1392
Li    Li1412        0.7005    0.6550    0.7385
Li    Li1413        0.5899    0.7031    0.6120
Li    Li1414        0.5965    0.6508    0.9825
Li    Li1415        0.7089    0.6498    0.9807
Li    Li1416        0.6820    0.7390    0.2526
Li    Li1417        0.7114    0.7033    0.3672
Li    Li1418        0.5425    0.8062    0.3896
Li    Li1419        0.5737    0.8026    0.3625
Li    Li1420        0.5478    0.7592    0.5224
Li    Li1421        0.5290    0.7959    0.6264
Li    Li1422        0.7216    0.7416    0.0035
Li    Li1423        0.6753    0.8445    0.0083
Li    Li1424        0.7067    0.8324    0.2379
Li    Li1425        0.7129    0.8058    0.0990
Li    Li1426        0.5475    0.8876    0.1377
Li    Li1427        0.6667    0.8020    0.1360
Li    Li1428        0.6650    0.7927    0.3819
Li    Li1429        0.5858    0.8569    0.7285
Li    Li1430        0.7073    0.8372    0.7278
Li    Li1431        0.5407    0.8994    0.6336
Li    Li1432        0.5857    0.8951    0.6161
Li    Li1433        0.5446    0.8483    0.7734
Li    Li1434        0.7092    0.8415    0.9775
Li    Li1435        0.7058    0.7961    0.8620
Li    Li1436        0.6613    0.8980    0.1558
Li    Li1437        0.6703    0.9538    0.5207
Li    Li1438        0.5429    0.9948    0.6421
Li    Li1439        0.7954    0.0472    0.0201
Li    Li1440        0.9562    0.0559    0.2375
Li    Li1441        0.9548    0.0400    0.4920
Li    Li1442        0.8318    0.0485    0.7468
Li    Li1443        0.8300    0.0513    0.9914
Li    Li1444        0.9193    0.0520    0.7574
Li    Li1445        0.7909    0.0585    0.7651
Li    Li1446        0.9239    0.0087    0.8848
Li    Li1447        0.8367    0.1506    0.2400
Li    Li1448        0.7970    0.1430    0.0111
Li    Li1449        0.9622    0.1521    0.2294
Li    Li1450        0.8017    0.1985    0.1299
Li    Li1451        0.9283    0.0973    0.1346
Li    Li1452        0.8296    0.1438    0.4735
Li    Li1453        0.7977    0.1551    0.2609
Li    Li1454        0.9558    0.1146    0.3472
Li    Li1455        0.7917    0.1981    0.3825
Li    Li1456        0.9654    0.1107    0.8597
Li    Li1457        0.9126    0.1042    0.8812
Li    Li1458        0.8315    0.2452    0.2351
Li    Li1459        0.9651    0.2515    0.2353
Li    Li1460        0.9203    0.2086    0.1385
Li    Li1461        0.9228    0.2475    0.2599
Li    Li1462        0.7977    0.2454    0.2638
Li    Li1463        0.9549    0.2074    0.3585
Li    Li1464        0.8011    0.3012    0.3877
Li    Li1465        0.8263    0.2563    0.7328
Li    Li1466        0.7901    0.2543    0.5103
Li    Li1467        0.7987    0.2937    0.6453
Li    Li1468        0.7893    0.2936    0.8874
Li    Li1469        0.8350    0.3646    0.2404
Li    Li1470        0.9198    0.3500    0.0013
Li    Li1471        0.7979    0.3953    0.1385
Li    Li1472        0.9147    0.3018    0.1320
Li    Li1473        0.8237    0.3526    0.4904
Li    Li1474        0.7981    0.3548    0.2646
Li    Li1475        0.9608    0.3522    0.4806
Li    Li1476        0.9604    0.3114    0.3562
Li    Li1477        0.7932    0.3914    0.3902
Li    Li1478        0.8306    0.3624    0.7318
Li    Li1479        0.7904    0.3538    0.5089
Li    Li1480        0.9635    0.3020    0.5983
Li    Li1481        0.7943    0.3949    0.6382
Li    Li1482        0.9138    0.2917    0.6321
Li    Li1483        0.7920    0.3493    0.7614
Li    Li1484        0.9183    0.3010    0.8899
Li    Li1485        0.8311    0.4466    0.2332
Li    Li1486        0.9546    0.4538    0.2410
Li    Li1487        0.9549    0.4064    0.1122
Li    Li1488        0.7880    0.4546    0.2647
Li    Li1489        0.9564    0.4477    0.4830
Li    Li1490        0.8036    0.4828    0.3839
Li    Li1491        0.7962    0.4866    0.6440
Li    Li1492        0.8329    0.4921    0.6014
Li    Li1493        0.8271    0.4676    0.9848
Li    Li1494        0.7980    0.4847    0.8749
Li    Li1495        0.8317    0.5026    0.8559
Li    Li1496        0.9733    0.4979    0.3779
Li    Li1497        0.8375    0.5961    0.3531
Li    Li1498        0.8313    0.5591    0.7298
Li    Li1499        0.8339    0.5963    0.6178
Li    Li1500        0.9180    0.5537    0.7546
Li    Li1501        0.9321    0.6507    0.0126
Li    Li1502        0.9491    0.6125    0.1302
Li    Li1503        0.9601    0.6069    0.3643
Li    Li1504        0.7957    0.7011    0.3938
Li    Li1505        0.8334    0.6894    0.3676
Li    Li1506        0.9542    0.6536    0.7361
Li    Li1507        0.9530    0.6042    0.6141
Li    Li1508        0.9127    0.5999    0.6305
Li    Li1509        0.7946    0.6499    0.7646
Li    Li1510        0.9547    0.6474    0.9772
Li    Li1511        0.8086    0.7005    0.8901
Li    Li1512        0.9238    0.6021    0.8819
Li    Li1513        0.8364    0.6859    0.8649
Li    Li1514        0.9215    0.7536    0.0009
Li    Li1515        0.9568    0.7503    0.2296
Li    Li1516        0.9620    0.6935    0.1171
Li    Li1517        0.8287    0.7895    0.1039
Li    Li1518        0.9543    0.7540    0.4840
Li    Li1519        0.8308    0.7551    0.7283
Li    Li1520        0.9183    0.7069    0.6388
Li    Li1521        0.8255    0.8060    0.6259
Li    Li1522        0.8320    0.7625    0.9831
Li    Li1523        0.9167    0.7506    0.7486
Li    Li1524        0.7948    0.7607    0.7649
Li    Li1525        0.9606    0.7441    0.9752
Li    Li1526        0.9406    0.7087    0.8771
Li    Li1527        0.7962    0.7888    0.8903
Li    Li1528        0.7887    0.8479    0.0166
Li    Li1529        0.9566    0.8385    0.2329
Li    Li1530        0.7889    0.8453    0.2750
Li    Li1531        0.7946    0.8982    0.3844
Li    Li1532        0.9662    0.9476    0.2474
Li    Li1533        0.8427    0.9485    0.7441
Li    Li1534        0.7870    0.9372    0.5003
Li    Li1535        0.1261    0.0083    0.0931
Li    Li1536        0.1118    0.0855    0.1570
Li    Li1537        0.1336    0.0333    0.2300
Li    Li1538        0.2550    0.0634    0.2211
Li    Li1539        0.9780    0.0157    0.4058
Li    Li1540        0.1080    0.0906    0.4068
Li    Li1541        0.1224    0.0420    0.4728
Li    Li1542        0.2615    0.0603    0.4633
Li    Li1543        0.9809    0.0338    0.2796
Li    Li1544        0.0031    0.0389    0.5357
Li    Li1545        0.0101    0.0422    0.7785
Li    Li1546        0.1216    0.1158    0.0918
Li    Li1547        0.1140    0.1647    0.0253
Li    Li1548        0.1278    0.1438    0.2180
Li    Li1549        0.9981    0.1400    0.0432
Li    Li1550        0.9964    0.1059    0.4024
Li    Li1551        0.1347    0.1602    0.2854
Li    Li1552        0.1286    0.1474    0.4718
Li    Li1553        0.1500    0.1193    0.6034
Li    Li1554        0.1246    0.1866    0.6497
Li    Li1555        0.1100    0.1333    0.7238
Li    Li1556        0.2496    0.1542    0.7120
Li    Li1557        0.0124    0.1344    0.5255
Li    Li1558        0.0047    0.1134    0.9023
Li    Li1559        0.9875    0.2104    0.1633
Li    Li1560        0.2490    0.2917    0.1073
Li    Li1561        0.1130    0.2610    0.0295
Li    Li1562        0.2521    0.2555    0.2089
Li    Li1563        0.9911    0.2048    0.4081
Li    Li1564        0.2476    0.2887    0.3535
Li    Li1565        0.1179    0.2210    0.3450
Li    Li1566        0.1175    0.2883    0.4087
Li    Li1567        0.1227    0.2601    0.2796
Li    Li1568        0.9840    0.2331    0.2779
Li    Li1569        0.1373    0.2195    0.6005
Li    Li1570        0.1254    0.2536    0.5219
Li    Li1571        0.2513    0.2880    0.8505
Li    Li1572        0.1146    0.2925    0.9123
Li    Li1573        0.2597    0.2702    0.9727
Li    Li1574        0.1283    0.3937    0.1614
Li    Li1575        0.9770    0.3205    0.4004
Li    Li1576        0.1145    0.3936    0.4072
Li    Li1577        0.1245    0.3659    0.2718
Li    Li1578        0.2557    0.3505    0.4664
Li    Li1579        0.9954    0.3374    0.2915
Li    Li1580        0.9914    0.3168    0.6462
Li    Li1581        0.2531    0.3908    0.5976
Li    Li1582        0.1288    0.3121    0.6008
Li    Li1583        0.2518    0.3609    0.7260
Li    Li1584        0.2626    0.3844    0.8514
Li    Li1585        0.1287    0.3138    0.8429
Li    Li1586        0.1235    0.3542    0.7708
Li    Li1587        0.1350    0.3287    0.9809
Li    Li1588        0.1252    0.4173    0.1057
Li    Li1589        0.1456    0.4642    0.0323
Li    Li1590        0.1180    0.4346    0.2185
Li    Li1591        0.9952    0.4069    0.4103
Li    Li1592        0.2535    0.4886    0.3422
Li    Li1593        0.1259    0.4923    0.4132
Li    Li1594        0.1210    0.4554    0.2768
Li    Li1595        0.1297    0.4433    0.4576
Li    Li1596        0.2538    0.4528    0.4613
Li    Li1597        0.9970    0.4265    0.2715
Li    Li1598        0.9868    0.4133    0.6678
Li    Li1599        0.1343    0.4110    0.5966
Li    Li1600        0.1359    0.4881    0.6568
Li    Li1601        0.1336    0.4357    0.7181
Li    Li1602        0.2367    0.4639    0.7110
Li    Li1603        0.2575    0.4850    0.8598
Li    Li1604        0.2532    0.4522    0.9628
Li    Li1605        0.1149    0.5101    0.0967
Li    Li1606        0.9919    0.5082    0.4130
Li    Li1607        0.1437    0.5165    0.3364
Li    Li1608        0.2696    0.5712    0.4754
Li    Li1609        0.1397    0.5157    0.5842
Li    Li1610        0.1305    0.5991    0.6580
Li    Li1611        0.1236    0.5523    0.5216
Li    Li1612        0.2205    0.5709    0.7175
Li    Li1613        0.2535    0.5916    0.8427
Li    Li1614        0.1242    0.5095    0.8411
Li    Li1615        0.2544    0.5604    0.9473
Li    Li1616        0.2490    0.6884    0.0930
Li    Li1617        0.1259    0.6620    0.0313
Li    Li1618        0.1414    0.6314    0.2229
Li    Li1619        0.0148    0.6384    0.0316
Li    Li1620        0.9915    0.6079    0.4205
Li    Li1621        0.1107    0.6874    0.3952
Li    Li1622        0.1073    0.6661    0.2842
Li    Li1623        0.1347    0.6334    0.4701
Li    Li1624        0.0090    0.6355    0.2748
Li    Li1625        0.0137    0.6117    0.6562
Li    Li1626        0.1444    0.6089    0.5926
Li    Li1627        0.1362    0.6606    0.5267
Li    Li1628        0.1343    0.6373    0.7219
Li    Li1629        0.2434    0.6605    0.7230
Li    Li1630        0.0015    0.6378    0.5308
Li    Li1631        0.9859    0.6168    0.9014
Li    Li1632        0.1398    0.6110    0.8321
Li    Li1633        0.1209    0.6686    0.7706
Li    Li1634        0.1047    0.6330    0.9823
Li    Li1635        0.2328    0.6632    0.9716
Li    Li1636        0.9906    0.6423    0.7829
Li    Li1637        0.9811    0.7133    0.1612
Li    Li1638        0.0107    0.7457    0.0150
Li    Li1639        0.0120    0.7161    0.4058
Li    Li1640        0.1329    0.7066    0.3404
Li    Li1641        0.1169    0.7893    0.6608
Li    Li1642        0.1261    0.7368    0.7278
Li    Li1643        0.9797    0.7349    0.5260
Li    Li1644        0.2570    0.7866    0.8700
Li    Li1645        0.1061    0.7141    0.8430
Li    Li1646        0.1238    0.7934    0.8946
Li    Li1647        0.1070    0.7670    0.7691
Li    Li1648        0.1321    0.7378    0.9799
Li    Li1649        0.2529    0.7632    0.9637
Li    Li1650        0.0117    0.8137    0.1465
Li    Li1651        0.2583    0.8914    0.3474
Li    Li1652        0.1188    0.8818    0.3929
Li    Li1653        0.2623    0.8561    0.4678
Li    Li1654        0.2616    0.8786    0.6034
Li    Li1655        0.2633    0.8573    0.7125
Li    Li1656        0.2554    0.8773    0.8545
Li    Li1657        0.1092    0.8886    0.9193
Li    Li1658        0.1050    0.8306    0.9659
Li    Li1659        0.2518    0.8547    0.9593
Li    Li1660        0.0095    0.8378    0.7786
Li    Li1661        0.1178    0.9808    0.1506
Li    Li1662        0.1090    0.9391    0.2250
Li    Li1663        0.2350    0.9593    0.2209
Li    Li1664        0.2400    0.9882    0.3459
Li    Li1665        0.1245    0.9108    0.3456
Li    Li1666        0.1389    0.9919    0.4004
Li    Li1667        0.1203    0.9656    0.2824
Li    Li1668        0.1060    0.9294    0.4750
Li    Li1669        0.9860    0.9366    0.2910
Li    Li1670        0.2396    0.9647    0.7229
Li    Li1671        0.0050    0.9108    0.8951
Li    Li1672        0.1342    0.9205    0.8508
Li    Li1673        0.1184    0.9593    0.7829
Li    Li1674        0.2591    0.9650    0.9793
Li    Li1675        0.2420    0.0072    0.1472
Li    Li1676        0.3636    0.0937    0.1594
Li    Li1677        0.3595    0.0637    0.0313
Li    Li1678        0.3796    0.0353    0.2160
Li    Li1679        0.5044    0.0584    0.2187
Li    Li1680        0.2493    0.0140    0.4100
Li    Li1681        0.5013    0.0920    0.3604
Li    Li1682        0.3795    0.0071    0.3412
Li    Li1683        0.3678    0.0830    0.4138
Li    Li1684        0.3743    0.0353    0.4732
Li    Li1685        0.2598    0.0353    0.2814
Li    Li1686        0.3567    0.0658    0.5231
Li    Li1687        0.2673    0.0375    0.5202
Li    Li1688        0.3770    0.0039    0.8335
Li    Li1689        0.2457    0.1134    0.1622
Li    Li1690        0.4912    0.1908    0.0922
Li    Li1691        0.3633    0.1106    0.1032
Li    Li1692        0.3622    0.1754    0.1540
Li    Li1693        0.3851    0.1048    0.3379
Li    Li1694        0.3792    0.1910    0.4074
Li    Li1695        0.5026    0.1578    0.4618
Li    Li1696        0.2502    0.1410    0.2845
Li    Li1697        0.4927    0.1578    0.7186
Li    Li1698        0.5041    0.1893    0.8382
Li    Li1699        0.3847    0.1186    0.8409
Li    Li1700        0.3710    0.1568    0.7863
Li    Li1701        0.5022    0.1630    0.9672
Li    Li1702        0.4999    0.2846    0.0989
Li    Li1703        0.3839    0.2482    0.0176
Li    Li1704        0.3785    0.2431    0.2238
Li    Li1705        0.5138    0.2674    0.2249
Li    Li1706        0.5111    0.2877    0.3577
Li    Li1707        0.3934    0.2174    0.3615
Li    Li1708        0.5041    0.2617    0.4701
Li    Li1709        0.2464    0.2145    0.6507
Li    Li1710        0.5174    0.2816    0.6095
Li    Li1711        0.3708    0.2901    0.6499
Li    Li1712        0.5206    0.2649    0.7251
Li    Li1713        0.5149    0.2917    0.8456
Li    Li1714        0.3667    0.2790    0.9199
Li    Li1715        0.3793    0.2419    0.9659
Li    Li1716        0.5123    0.2674    0.9665
Li    Li1717        0.2639    0.3164    0.1523
Li    Li1718        0.5047    0.3916    0.0961
Li    Li1719        0.3794    0.3874    0.1529
Li    Li1720        0.3578    0.3630    0.0010
Li    Li1721        0.3571    0.3370    0.2205
Li    Li1722        0.5243    0.3658    0.2328
Li    Li1723        0.2320    0.3261    0.4033
Li    Li1724        0.5026    0.3785    0.3488
Li    Li1725        0.3741    0.3995    0.4036
Li    Li1726        0.3657    0.3694    0.2636
Li    Li1727        0.3585    0.3442    0.4769
Li    Li1728        0.2372    0.3119    0.6677
Li    Li1729        0.4965    0.3895    0.5967
Li    Li1730        0.3716    0.3122    0.5975
Li    Li1731        0.3758    0.3849    0.6566
Li    Li1732        0.3693    0.3576    0.5319
Li    Li1733        0.2409    0.3329    0.5208
Li    Li1734        0.3921    0.3197    0.8633
Li    Li1735        0.2544    0.4091    0.1473
Li    Li1736        0.3756    0.4860    0.1453
Li    Li1737        0.3783    0.4631    0.0307
Li    Li1738        0.3778    0.4360    0.2172
Li    Li1739        0.2356    0.4342    0.0339
Li    Li1740        0.5128    0.4889    0.3386
Li    Li1741        0.3742    0.4955    0.4149
Li    Li1742        0.3664    0.4556    0.2761
Li    Li1743        0.4852    0.4639    0.4705
Li    Li1744        0.2327    0.4337    0.2783
Li    Li1745        0.2383    0.4101    0.6626
Li    Li1746        0.2396    0.4425    0.5409
Li    Li1747        0.2482    0.4100    0.9223
Li    Li1748        0.2648    0.5118    0.1499
Li    Li1749        0.3700    0.5898    0.1605
Li    Li1750        0.3846    0.5311    0.2192
Li    Li1751        0.5134    0.5928    0.3359
Li    Li1752        0.3794    0.5062    0.3454
Li    Li1753        0.3780    0.5917    0.4009
Li    Li1754        0.2294    0.5455    0.2823
Li    Li1755        0.3755    0.5873    0.6616
Li    Li1756        0.2540    0.5392    0.5287
Li    Li1757        0.3676    0.5896    0.9121
Li    Li1758        0.3831    0.5415    0.9620
Li    Li1759        0.2419    0.5499    0.7910
Li    Li1760        0.2479    0.6140    0.1484
Li    Li1761        0.4845    0.6881    0.0830
Li    Li1762        0.3669    0.6795    0.1453
Li    Li1763        0.3786    0.6611    0.0269
Li    Li1764        0.4948    0.6645    0.2227
Li    Li1765        0.2302    0.6376    0.0378
Li    Li1766        0.5021    0.6883    0.3477
Li    Li1767        0.3720    0.6113    0.3492
Li    Li1768        0.3721    0.6599    0.2742
Li    Li1769        0.5104    0.6890    0.5948
Li    Li1770        0.3800    0.6588    0.5394
Li    Li1771        0.3536    0.6493    0.7244
Li    Li1772        0.2382    0.6371    0.5349
Li    Li1773        0.2631    0.6171    0.9027
Li    Li1774        0.3746    0.6873    0.8985
Li    Li1775        0.3767    0.6671    0.7715
Li    Li1776        0.3627    0.6398    0.9768
Li    Li1777        0.2514    0.7153    0.1460
Li    Li1778        0.3873    0.7607    0.0274
Li    Li1779        0.3806    0.7459    0.2208
Li    Li1780        0.5021    0.7922    0.3422
Li    Li1781        0.3569    0.7159    0.3484
Li    Li1782        0.3630    0.7618    0.2815
Li    Li1783        0.2372    0.7352    0.2739
Li    Li1784        0.4913    0.7874    0.6056
Li    Li1785        0.3796    0.7185    0.6002
Li    Li1786        0.3829    0.7373    0.7262
Li    Li1787        0.5063    0.7675    0.7282
Li    Li1788        0.5063    0.7853    0.8472
Li    Li1789        0.3825    0.7877    0.9002
Li    Li1790        0.3837    0.8240    0.2341
Li    Li1791        0.5030    0.8585    0.2362
Li    Li1792        0.3622    0.8901    0.4045
Li    Li1793        0.3785    0.8569    0.2873
Li    Li1794        0.2430    0.8329    0.2719
Li    Li1795        0.5014    0.8895    0.5965
Li    Li1796        0.3735    0.8403    0.7250
Li    Li1797        0.2380    0.8261    0.5215
Li    Li1798        0.4899    0.8886    0.8453
Li    Li1799        0.3857    0.8182    0.8472
Li    Li1800        0.3659    0.8974    0.9077
Li    Li1801        0.3706    0.8719    0.7769
Li    Li1802        0.3716    0.9846    0.1550
Li    Li1803        0.2473    0.9333    0.0256
Li    Li1804        0.2533    0.9151    0.4048
Li    Li1805        0.5003    0.9912    0.3453
Li    Li1806        0.3731    0.9442    0.4646
Li    Li1807        0.2469    0.9362    0.2738
Li    Li1808        0.2488    0.9105    0.6497
Li    Li1809        0.4976    0.9883    0.6037
Li    Li1810        0.3599    0.9152    0.5958
Li    Li1811        0.3558    0.9692    0.6407
Li    Li1812        0.3657    0.9677    0.5236
Li    Li1813        0.3740    0.9344    0.7221
Li    Li1814        0.2387    0.9101    0.9018
Li    Li1815        0.3742    0.9177    0.8464
Li    Li1816        0.3703    0.9881    0.8982
Li    Li1817        0.3736    0.9567    0.7836
Li    Li1818        0.3943    0.9442    0.9632
Li    Li1819        0.4946    0.9584    0.9633
Li    Li1820        0.2519    0.9380    0.7757
Li    Li1821        0.7610    0.0824    0.0944
Li    Li1822        0.6216    0.1002    0.1574
Li    Li1823        0.6246    0.0643    0.0307
Li    Li1824        0.6152    0.0376    0.2221
Li    Li1825        0.7457    0.0598    0.2233
Li    Li1826        0.5009    0.0469    0.0335
Li    Li1827        0.5040    0.0065    0.3981
Li    Li1828        0.6400    0.0139    0.3440
Li    Li1829        0.6212    0.0638    0.2883
Li    Li1830        0.5014    0.0377    0.2871
Li    Li1831        0.4957    0.0228    0.6498
Li    Li1832        0.5171    0.0331    0.5316
Li    Li1833        0.7668    0.0821    0.8479
Li    Li1834        0.6354    0.0411    0.9571
Li    Li1835        0.4922    0.1092    0.1554
Li    Li1836        0.7611    0.1796    0.1061
Li    Li1837        0.6399    0.1723    0.0315
Li    Li1838        0.7544    0.1596    0.2229
Li    Li1839        0.5007    0.1118    0.4008
Li    Li1840        0.7661    0.1702    0.9798
Li    Li1841        0.4908    0.1348    0.7775
Li    Li1842        0.6386    0.2114    0.0874
Li    Li1843        0.6175    0.2715    0.0213
Li    Li1844        0.6201    0.2914    0.4061
Li    Li1845        0.6188    0.2639    0.2840
Li    Li1846        0.4833    0.2450    0.2813
Li    Li1847        0.7561    0.2853    0.5981
Li    Li1848        0.6366    0.2146    0.6012
Li    Li1849        0.6392    0.2869    0.6502
Li    Li1850        0.6241    0.2557    0.5354
Li    Li1851        0.7541    0.2600    0.7268
Li    Li1852        0.5004    0.2392    0.5269
Li    Li1853        0.7709    0.2679    0.8565
Li    Li1854        0.6242    0.2870    0.9083
Li    Li1855        0.6215    0.2663    0.7767
Li    Li1856        0.7389    0.3913    0.0812
Li    Li1857        0.6053    0.3799    0.1472
Li    Li1858        0.6232    0.3053    0.3308
Li    Li1859        0.6228    0.3950    0.4069
Li    Li1860        0.6398    0.3356    0.4870
Li    Li1861        0.7665    0.3668    0.4706
Li    Li1862        0.5173    0.3127    0.6510
Li    Li1863        0.7538    0.3893    0.5919
Li    Li1864        0.6241    0.3036    0.5959
Li    Li1865        0.6253    0.3863    0.6567
Li    Li1866        0.6070    0.3316    0.7200
Li    Li1867        0.7639    0.3554    0.7138
Li    Li1868        0.4897    0.3293    0.9011
Li    Li1869        0.7344    0.3987    0.8541
Li    Li1870        0.6312    0.3171    0.8428
Li    Li1871        0.7336    0.3647    0.9743
Li    Li1872        0.4942    0.3352    0.7769
Li    Li1873        0.7585    0.4885    0.0858
Li    Li1874        0.6084    0.4843    0.1566
Li    Li1875        0.6248    0.4598    0.0211
Li    Li1876        0.6097    0.4350    0.2171
Li    Li1877        0.5007    0.4194    0.4044
Li    Li1878        0.7473    0.4872    0.3501
Li    Li1879        0.6063    0.4831    0.4000
Li    Li1880        0.6253    0.4427    0.4632
Li    Li1881        0.5217    0.4369    0.2779
Li    Li1882        0.4940    0.4133    0.6496
Li    Li1883        0.6160    0.4105    0.5909
Li    Li1884        0.6230    0.4558    0.5331
Li    Li1885        0.5013    0.4405    0.5270
Li    Li1886        0.7692    0.4766    0.8457
Li    Li1887        0.6281    0.4892    0.9056
Li    Li1888        0.7562    0.4591    0.9689
Li    Li1889        0.4874    0.5102    0.1654
Li    Li1890        0.7285    0.5892    0.0988
Li    Li1891        0.6255    0.5122    0.0987
Li    Li1892        0.6355    0.5086    0.3421
Li    Li1893        0.6203    0.5867    0.4050
Li    Li1894        0.6291    0.5607    0.2718
Li    Li1895        0.4932    0.5432    0.2835
Li    Li1896        0.7554    0.5724    0.6038
Li    Li1897        0.7549    0.5664    0.7192
Li    Li1898        0.7531    0.5946    0.8369
Li    Li1899        0.6251    0.5362    0.9765
Li    Li1900        0.5134    0.6184    0.1505
Li    Li1901        0.7313    0.6853    0.0985
Li    Li1902        0.6135    0.6129    0.0966
Li    Li1903        0.6354    0.6500    0.0285
Li    Li1904        0.5137    0.6387    0.0250
Li    Li1905        0.7585    0.6786    0.3555
Li    Li1906        0.4888    0.6125    0.6470
Li    Li1907        0.6141    0.6865    0.6601
Li    Li1908        0.7567    0.6618    0.7218
Li    Li1909        0.5079    0.6330    0.5305
Li    Li1910        0.5034    0.6110    0.9051
Li    Li1911        0.6222    0.6089    0.8558
Li    Li1912        0.7529    0.7826    0.0949
Li    Li1913        0.6419    0.7181    0.1022
Li    Li1914        0.6240    0.7369    0.2304
Li    Li1915        0.4985    0.7379    0.0255
Li    Li1916        0.4950    0.7079    0.4071
Li    Li1917        0.6327    0.7105    0.3356
Li    Li1918        0.6238    0.7863    0.4050
Li    Li1919        0.6285    0.7355    0.4715
Li    Li1920        0.5070    0.7099    0.6444
Li    Li1921        0.5016    0.7459    0.5209
Li    Li1922        0.7484    0.7890    0.8434
Li    Li1923        0.6400    0.7943    0.8956
Li    Li1924        0.6176    0.7746    0.7738
Li    Li1925        0.7446    0.7592    0.9724
Li    Li1926        0.4826    0.8170    0.1379
Li    Li1927        0.7596    0.8757    0.1093
Li    Li1928        0.6170    0.8840    0.1653
Li    Li1929        0.6290    0.8452    0.2188
Li    Li1930        0.4982    0.8098    0.4026
Li    Li1931        0.5022    0.8418    0.2691
Li    Li1932        0.5145    0.8154    0.6569
Li    Li1933        0.6377    0.8874    0.6595
Li    Li1934        0.6314    0.8470    0.7210
Li    Li1935        0.4851    0.8326    0.5288
Li    Li1936        0.7478    0.8577    0.9691
Li    Li1937        0.7313    0.9832    0.3476
Li    Li1938        0.7406    0.9601    0.4707
Li    Li1939        0.5080    0.9074    0.6511
Li    Li1940        0.6307    0.9091    0.5992
Li    Li1941        0.9838    0.0856    0.3469
Li    Li1942        0.8675    0.0455    0.2809
Li    Li1943        0.8863    0.0354    0.7256
Li    Li1944        0.0034    0.0680    0.7198
Li    Li1945        0.7375    0.0077    0.8951
Li    Li1946        0.8859    0.0111    0.8426
Li    Li1947        0.8657    0.0899    0.9087
Li    Li1948        0.8799    0.0599    0.7776
Li    Li1949        0.8798    0.0375    0.9760
Li    Li1950        0.7385    0.1159    0.1462
Li    Li1951        0.8676    0.1106    0.0820
Li    Li1952        0.7284    0.1354    0.0258
Li    Li1953        0.0149    0.1846    0.3314
Li    Li1954        0.8774    0.1093    0.3363
Li    Li1955        0.8805    0.1593    0.2842
Li    Li1956        0.8825    0.1382    0.4691
Li    Li1957        0.7381    0.1290    0.2685
Li    Li1958        0.7682    0.1124    0.9008
Li    Li1959        0.8785    0.1082    0.8309
Li    Li1960        0.8698    0.1607    0.7869
Li    Li1961        0.0011    0.2846    0.0984
Li    Li1962        0.8904    0.2818    0.1495
Li    Li1963        0.8776    0.2456    0.2194
Li    Li1964        0.0038    0.2721    0.2249
Li    Li1965        0.7529    0.2006    0.3811
Li    Li1966        0.8654    0.2132    0.3439
Li    Li1967        0.8870    0.2406    0.4691
Li    Li1968        0.0081    0.2563    0.4731
Li    Li1969        0.0103    0.2770    0.5983
Li    Li1970        0.8764    0.2605    0.5259
Li    Li1971        0.8592    0.2264    0.8411
Li    Li1972        0.8556    0.2605    0.7878
Li    Li1973        0.8739    0.2384    0.9632
Li    Li1974        0.0222    0.2743    0.9823
Li    Li1975        0.0033    0.3911    0.0920
Li    Li1976        0.9913    0.3911    0.3423
Li    Li1977        0.8769    0.3109    0.3375
Li    Li1978        0.8774    0.3936    0.3997
Li    Li1979        0.8879    0.3413    0.4666
Li    Li1980        0.7454    0.3403    0.2789
Li    Li1981        0.7437    0.3228    0.6500
Li    Li1982        0.8521    0.3079    0.5925
Li    Li1983        0.8855    0.3873    0.6550
Li    Li1984        0.8714    0.3596    0.5160
Li    Li1985        0.8755    0.3387    0.7213
Li    Li1986        0.7536    0.3029    0.8926
Li    Li1987        0.8761    0.3007    0.8455
Li    Li1988        0.8793    0.3921    0.9021
Li    Li1989        0.8933    0.3710    0.7752
Li    Li1990        0.0140    0.3641    0.9742
Li    Li1991        0.7667    0.3361    0.7806
Li    Li1992        0.7401    0.4247    0.1503
Li    Li1993        0.8873    0.4665    0.0320
Li    Li1994        0.0066    0.4580    0.2170
Li    Li1995        0.7548    0.4056    0.3999
Li    Li1996        0.0128    0.4871    0.3427
Li    Li1997        0.8868    0.4146    0.3427
Li    Li1998        0.8727    0.4855    0.4036
Li    Li1999        0.8590    0.4680    0.2774
Li    Li2000        0.7663    0.4382    0.2849
Li    Li2001        0.8745    0.4373    0.7247
Li    Li2002        0.8793    0.4136    0.8517
Li    Li2003        0.8652    0.4656    0.7724
Li    Li2004        0.8701    0.4482    0.9789
Li    Li2005        0.9885    0.5846    0.0985
Li    Li2006        0.8902    0.5116    0.0973
Li    Li2007        0.8704    0.5860    0.1535
Li    Li2008        0.8801    0.5370    0.2209
Li    Li2009        0.7498    0.5300    0.0198
Li    Li2010        0.7454    0.4936    0.4041
Li    Li2011        0.0073    0.5845    0.3508
Li    Li2012        0.8772    0.5928    0.3965
Li    Li2013        0.8649    0.5692    0.2681
Li    Li2014        0.7394    0.5370    0.2909
Li    Li2015        0.8671    0.5904    0.6551
Li    Li2016        0.8696    0.5391    0.7245
Li    Li2017        0.7545    0.5132    0.9063
Li    Li2018        0.7438    0.6109    0.1627
Li    Li2019        0.9982    0.6929    0.0884
Li    Li2020        0.8705    0.6021    0.0948
Li    Li2021        0.8906    0.6275    0.2274
Li    Li2022        0.0076    0.6570    0.2117
Li    Li2023        0.7511    0.6425    0.0295
Li    Li2024        0.0137    0.6749    0.3512
Li    Li2025        0.8856    0.6103    0.3435
Li    Li2026        0.8875    0.6426    0.4646
Li    Li2027        0.0045    0.6533    0.4637
Li    Li2028        0.8678    0.6811    0.6411
Li    Li2029        0.8654    0.6724    0.5222
Li    Li2030        0.0176    0.6618    0.7072
Li    Li2031        0.7490    0.6233    0.9025
Li    Li2032        0.8585    0.6133    0.8459
Li    Li2033        0.8573    0.6811    0.9099
Li    Li2034        0.8799    0.6324    0.9722
Li    Li2035        0.7601    0.6402    0.7779
Li    Li2036        0.7399    0.7197    0.1425
Li    Li2037        0.9900    0.7912    0.1047
Li    Li2038        0.8700    0.7622    0.0343
Li    Li2039        0.7485    0.7328    0.0289
Li    Li2040        0.7450    0.7136    0.3960
Li    Li2041        0.0040    0.7836    0.3520
Li    Li2042        0.8566    0.7849    0.4218
Li    Li2043        0.8746    0.7376    0.4676
Li    Li2044        0.0044    0.7612    0.4717
Li    Li2045        0.8779    0.7083    0.5885
Li    Li2046        0.8740    0.7625    0.5246
Li    Li2047        0.8758    0.7297    0.7291
Li    Li2048        0.0111    0.7793    0.8544
Li    Li2049        0.8700    0.7089    0.8447
Li    Li2050        0.8684    0.7781    0.8966
Li    Li2051        0.8911    0.7334    0.9700
Li    Li2052        0.7432    0.8137    0.1587
Li    Li2053        0.8507    0.8186    0.0908
Li    Li2054        0.8733    0.8851    0.1619
Li    Li2055        0.8919    0.8360    0.2249
Li    Li2056        0.7549    0.8395    0.0246
Li    Li2057        0.8806    0.8877    0.3960
Li    Li2058        0.8895    0.8252    0.4694
Li    Li2059        0.0141    0.8613    0.4758
Li    Li2060        0.7445    0.8344    0.2878
Li    Li2061        0.9990    0.8851    0.8408
Li    Li2062        0.0128    0.9867    0.0774
Li    Li2063        0.9735    0.9652    0.2240
Li    Li2064        0.8756    0.9366    0.7217
Li    Li2065        0.7622    0.9469    0.5194
Li    Li2066        0.8746    0.9626    0.7727
Li    Li2067        0.0203    0.9658    0.9879
